                                  MODFLOW-NWT-SWR1 
      U.S. GEOLOGICAL SURVEY MODULAR FINITE-DIFFERENCE GROUNDWATER-FLOW MODEL
                            VERSION 1.0.9 07/01/2014
                    BASED ON MODFLOW-2005 VERSION 1.11.00 08/30/2013

 LIST FILE: H:\MODELS\TUCSON\2010_MODEL\results\gmres_solution.lst
                         UNIT   30

 OPENING H:\MODFLOW\POST\4010.hds
 FILE TYPE:DATA   UNIT   31   STATUS:UNKNOWN
 FORMAT:FORMATTED              ACCESS:SEQUENTIAL          

 OPENING H:\MODELS\TUCSON\2010_MODEL\RESULTS\graphs.out
 FILE TYPE:DATA(BINARY)   UNIT   33   STATUS:UNKNOWN
 FORMAT:BINARY                 ACCESS:SEQUENTIAL          

 OPENING H:\MODELS\TUCSON\2010_MODEL\RESULTS\hobs.dat
 FILE TYPE:DATA   UNIT   34   STATUS:UNKNOWN
 FORMAT:FORMATTED              ACCESS:SEQUENTIAL          

 OPENING H:\MODELS\TUCSON\2010_MODEL\RESULTS\lost_pumpage.dat
 FILE TYPE:DATA   UNIT   35   STATUS:UNKNOWN
 FORMAT:FORMATTED              ACCESS:SEQUENTIAL          

 OPENING H:\MODFLOW\zonebud\zonebud3\bin\cbc.bgt
 FILE TYPE:DATA(BINARY)   UNIT   39   STATUS:UNKNOWN
 FORMAT:BINARY                 ACCESS:SEQUENTIAL                                                                                                                                                                                                                                            
#                                                                                                                                                                                                                                                                                                           
#  Observation files                                                                                                                                                                                                                                                                                        
#                                                                                                                                                                                                                                                                                                           

 OPENING H:\MODELS\TUCSON\2010_MODEL\BIN\tuc2011d.hob
 FILE TYPE:HOB   UNIT    8   STATUS:OLD    
 FORMAT:FORMATTED              ACCESS:SEQUENTIAL          

 OPENING H:\MODELS\TUCSON\2010_MODEL\BIN\tuchyd93.hyd
 FILE TYPE:HYD   UNIT    9   STATUS:OLD    
 FORMAT:FORMATTED              ACCESS:SEQUENTIAL                                                                                                                                                                                                                                           
#                                                                                                                                                                                                                                                                                                           
#  Parameter Files                                                                                                                                                                                                                                                                                          

 OPENING H:\MODELS\TUCSON\2010_MODEL\BIN\tuc1940q1.dis
 FILE TYPE:DIS   UNIT   10   STATUS:OLD    
 FORMAT:FORMATTED              ACCESS:SEQUENTIAL          

 OPENING H:\MODELS\TUCSON\2010_MODEL\BIN\tuc1940z.bas
 FILE TYPE:BAS6   UNIT   11   STATUS:OLD    
 FORMAT:FORMATTED              ACCESS:SEQUENTIAL          

 OPENING H:\MODELS\TUCSON\2010_MODEL\BIN\tuc1940t.upw
 FILE TYPE:UPW   UNIT   12   STATUS:OLD    
 FORMAT:FORMATTED              ACCESS:SEQUENTIAL                                                                                                                                                                                                                                     

 OPENING H:\MODELS\TUCSON\2010_MODEL\BIN\tuc2010q10.wel
 FILE TYPE:WEL   UNIT   13   STATUS:OLD    
 FORMAT:FORMATTED              ACCESS:SEQUENTIAL          

 OPENING H:\MODELS\TUCSON\2010_MODEL\BIN\TUC1940d.EVT
 FILE TYPE:EVT   UNIT   14   STATUS:OLD    
 FORMAT:FORMATTED              ACCESS:SEQUENTIAL          

 OPENING H:\MODELS\TUCSON\2010_MODEL\BIN\tuc2010a3.chd
 FILE TYPE:CHD   UNIT   15   STATUS:OLD    
 FORMAT:FORMATTED              ACCESS:SEQUENTIAL          

 OPENING H:\MODELS\TUCSON\2010_MODEL\BIN\tuc2010n1.rch
 FILE TYPE:RCH   UNIT   16   STATUS:OLD    
 FORMAT:FORMATTED              ACCESS:SEQUENTIAL          
#  Solver & Output Control                                                                                                                                                                                                                                                                                  

 OPENING H:\MODELS\TUCSON\2010_MODEL\BIN\gmres1.NWT
 FILE TYPE:NWT   UNIT   19   STATUS:OLD    
 FORMAT:FORMATTED              ACCESS:SEQUENTIAL          

 OPENING H:\MODELS\TUCSON\2010_MODEL\BIN\tuc4010a5.OC
 FILE TYPE:OC   UNIT   22   STATUS:OLD    
 FORMAT:FORMATTED              ACCESS:SEQUENTIAL          

 BAS -- BASIC PACKAGE, VERSION 7, 5/2/2005 INPUT READ FROM UNIT   11
 
 MODFLOW was compiled using mixed precision
 Precision of REAL variables:           6
 Precision of DOUBLE PRECISION variables:          15

 DISCRETIZATION INPUT DATA READ FROM UNIT   10
 # TUCSON AMA GROUNDWATER FLOW MODEL - 1940-2010 UPDATE
 # MODEL DISCRETIZATION FILE: 08/08/2012
 # STEADY-STATE - TRANSIENT PHASE: 1940-2008  LENGTH=FEET  TIME=DAYS
    3 LAYERS       130 ROWS       100 COLUMNS
   71 STRESS PERIOD(S) IN SIMULATION
 MODEL TIME UNIT IS DAYS
 MODEL LENGTH UNIT IS FEET
  Confining bed flag for each layer:
   0   0   0

                     DELR =   2640.00    

                     DELC =   2640.00    



           TOP ELEVATION OF LAYER 1
 READING ON UNIT   10 WITH FORMAT: (15F5.0)            



             MODEL LAYER BOTTOM EL. FOR LAYER   1
 READING ON UNIT   10 WITH FORMAT: (15F5.0)            



             MODEL LAYER BOTTOM EL. FOR LAYER   2
 READING ON UNIT   10 WITH FORMAT: (15F5.0)            



             MODEL LAYER BOTTOM EL. FOR LAYER   3
 READING ON UNIT   10 WITH FORMAT: (15F5.0)            


 STRESS PERIOD     LENGTH       TIME STEPS     MULTIPLIER FOR DELT    SS FLAG
 ----------------------------------------------------------------------------
        1         366.0000          1                    1.000         SS
        2         365.0000         12                    1.000         TR
        3         365.0000         12                    1.000         TR
        4         365.0000         12                    1.000         TR
        5         366.0000         12                    1.000         TR
        6         365.0000         12                    1.000         TR
        7         365.0000         12                    1.000         TR
        8         365.0000         12                    1.000         TR
        9         366.0000         12                    1.000         TR
       10         365.0000         12                    1.000         TR
       11         365.0000         12                    1.000         TR
       12         365.0000         12                    1.000         TR
       13         366.0000         12                    1.000         TR
       14         365.0000         12                    1.000         TR
       15         365.0000         12                    1.000         TR
       16         365.0000         12                    1.000         TR
       17         366.0000         12                    1.000         TR
       18         365.0000         12                    1.000         TR
       19         365.0000         12                    1.000         TR
       20         365.0000         12                    1.000         TR
       21         366.0000         12                    1.000         TR
       22         365.0000         12                    1.000         TR
       23         365.0000         12                    1.000         TR
       24         365.0000         12                    1.000         TR
       25         366.0000         12                    1.000         TR
       26         365.0000         12                    1.000         TR
       27         365.0000         12                    1.000         TR
       28         365.0000         12                    1.000         TR
       29         366.0000         12                    1.000         TR
       30         365.0000         12                    1.000         TR
       31         365.0000         12                    1.000         TR
       32         365.0000         12                    1.000         TR
       33         366.0000         12                    1.000         TR
       34         365.0000         12                    1.000         TR
       35         365.0000         12                    1.000         TR
       36         365.0000         12                    1.000         TR
       37         366.0000         12                    1.000         TR
       38         365.0000         12                    1.000         TR
       39         365.0000         12                    1.000         TR
       40         365.0000         12                    1.000         TR
       41         366.0000         12                    1.000         TR
       42         365.0000         12                    1.000         TR
       43         365.0000         12                    1.000         TR
       44         365.0000         12                    1.000         TR
       45         366.0000         12                    1.000         TR
       46         365.0000         12                    1.000         TR
       47         365.0000         12                    1.000         TR
       48         365.0000         12                    1.000         TR
       49         366.0000         12                    1.000         TR
       50         365.0000         12                    1.000         TR
       51         365.0000         12                    1.000         TR
       52         365.0000         12                    1.000         TR
       53         366.0000         12                    1.000         TR
       54         365.0000         12                    1.000         TR
       55         365.0000         12                    1.000         TR
       56         365.0000         12                    1.000         TR
       57         366.0000         12                    1.000         TR
       58         365.0000         12                    1.000         TR
       59         365.0000         12                    1.000         TR
       60         365.0000         12                    1.000         TR
       61         366.0000         12                    1.000         TR
       62         365.0000         12                    1.000         TR
       63         365.0000         12                    1.000         TR
       64         365.0000         12                    1.000         TR
       65         366.0000         12                    1.000         TR
       66         365.0000         12                    1.000         TR
       67         365.0000         12                    1.000         TR
       68         365.0000         12                    1.000         TR
       69         366.0000         12                    1.000         TR
       70         365.0000         12                    1.000         TR
       71         365.0000         12                    1.000         TR

 COMBINED STEADY-STATE AND TRANSIENT SIMULATION



 
 # TUCSON AMA GROUNDWATER FLOW MODEL                                             
 # MODFLOW BASIC PACKAGE - 4/17/2014                                             
 # TRANSIENT PROJECTION: 1940-2010
 # MODEL UNITS: LENGTH=FEET  TIME=DAYS  PERLIN=365 DAYS
 THE FREE FORMAT OPTION HAS BEEN SELECTED



                     BOUNDARY ARRAY FOR LAYER   1
 READING ON UNIT   11 WITH FORMAT: (FREE)              



                     BOUNDARY ARRAY FOR LAYER   2
 READING ON UNIT   11 WITH FORMAT: (FREE)              



                     BOUNDARY ARRAY FOR LAYER   3
 READING ON UNIT   11 WITH FORMAT: (FREE)              

 AQUIFER HEAD WILL BE SET TO   0.0000     AT ALL NO-FLOW NODES (IBOUND=0).



                       INITIAL HEAD FOR LAYER   1
 READING ON UNIT   11 WITH FORMAT: (15F5.0)            



                       INITIAL HEAD FOR LAYER   2
 READING ON UNIT   11 WITH FORMAT: (15F5.0)            



                       INITIAL HEAD FOR LAYER   3
 READING ON UNIT   11 WITH FORMAT: (15F5.0)            

 OUTPUT CONTROL IS SPECIFIED ONLY AT TIME STEPS FOR WHICH OUTPUT IS DESIRED
 HEADS WILL BE SAVED WITH FORMAT: (20f7.1)            
 SAVED HEADS WILL BE LABELED
 COMPACT CELL-BY-CELL BUDGET FILES WILL BE WRITTEN
 HEAD PRINT FORMAT CODE IS   0    DRAWDOWN PRINT FORMAT CODE IS   0
 HEADS WILL BE SAVED ON UNIT   31    DRAWDOWNS WILL BE SAVED ON UNIT    0
 # GMRES solver
 #HEADTOL  FLUXTOL MAXITEROUT THICKFACT LINMETH IPRNWT IBOTAV OPTIONS    DBDREDUCE DBDINCREASE DBDGAMMA MOMFACT BACKFLAG MAXBACKITER BACKTOL BACKREDUCE

 NWT1 -- Newton Solver, VERSION 1.0.9, 07/01/2014
         INPUT READ FROM UNIT 19

 SPECIFIED OPTION:
 SOLVER INPUT VALUES ARE SPECIFIED BY USER
 ***GMRES linear solver will be used***
 
   CONVERGENCE CRITERION OF   0.100000E-01 FOR HEAD SOLUTION
   AND A TOLERANCE OF   0.864000E+03 FOR FLOW SOLUTION AND 
   A MAXIMUM OF   500 OUTER ITERATIONS. 


   D-B-D REDUCTION FACTOR OF    0.900000E+00 AND 
   A D-B-D INCREASE FACTOR OF    0.100000E-03 AND 
   A D-B-D RELAXATION OF    0.000000E+00 AND 
   A MOMENTUM FACTOR OF    0.100000E+00 .


 ***BACKTRACKING IS INACTIVE***
 GMRES -- LINEAR SOLUTION BY GMRES PACKAGE 
     adapted for HYDROTHERM by Kipp and others (2008)
     using software originally developed by Saad (1990) 19
     using algorithms described in Saad (2003)

 UPW1 -- UPSTREAM WEIGHTING FLOW PACKAGE, VERSION 1.0.6, 12/05/2012
         INPUT READ FROM UNIT 12

 # TUCSON AMA GROUNDWATER FLOW MODEL - 1940-2010
 # Upstream-Weighting Package (UPW): 04/17/2014
 # STEADY-STATE/TRANSIENT PHASE: 1940-2010
 CELL-BY-CELL FLOWS WILL BE SAVED ON UNIT   39
 No named parameters

   LAYER FLAGS:
 LAYER       LAYTYP          LAYAVG    CHANI           LAYVKA           LAYWET
 ---------------------------------------------------------------------------
    1             1             0     1.000E+00             1             0
    2             3             0     1.000E+00             1             0
    3             3             0     1.000E+00             1             0

   INTERPRETATION OF LAYER FLAGS:
                        INTERBLOCK     HORIZONTAL    DATA IN
         LAYER TYPE   TRANSMISSIVITY   ANISOTROPY   ARRAY VKA   WETTABILITY
 LAYER   (LAYTYP)        (LAYAVG)      (CHANI)     (LAYVKA)       (LAYWET)
 ---------------------------------------------------------------------------
    1   CONVERTIBLE      HARMONIC     1.000E+00    ANISOTROPY  NON-WETTABLE
    2   CONVERTIBLE      HARMONIC     1.000E+00    ANISOTROPY  NON-WETTABLE
    3   CONVERTIBLE      HARMONIC     1.000E+00    ANISOTROPY  NON-WETTABLE



              HYD. COND. ALONG ROWS FOR LAYER   1
 READING ON UNIT   12 WITH FORMAT: (FREE)              



            HORIZ. TO VERTICAL ANI. FOR LAYER   1
 READING ON UNIT   12 WITH FORMAT: (FREE)              

         SPECIFIC STORAGE =  1.000000E-06 FOR LAYER   1



                     SPECIFIC YIELD FOR LAYER   1
 READING ON UNIT   12 WITH FORMAT: (FREE)              



              HYD. COND. ALONG ROWS FOR LAYER   2
 READING ON UNIT   12 WITH FORMAT: (FREE)              



            HORIZ. TO VERTICAL ANI. FOR LAYER   2
 READING ON UNIT   12 WITH FORMAT: (FREE)              

         SPECIFIC STORAGE =  1.000000E-06 FOR LAYER   2



                     SPECIFIC YIELD FOR LAYER   2
 READING ON UNIT   12 WITH FORMAT: (FREE)              



              HYD. COND. ALONG ROWS FOR LAYER   3
 READING ON UNIT   12 WITH FORMAT: (FREE)              



            HORIZ. TO VERTICAL ANI. FOR LAYER   3
 READING ON UNIT   12 WITH FORMAT: (FREE)              

         SPECIFIC STORAGE =  1.000000E-06 FOR LAYER   3



                     SPECIFIC YIELD FOR LAYER   3
 READING ON UNIT   12 WITH FORMAT: (FREE)              

 WEL -- WELL PACKAGE, VERSION 1.0.6, 12/05/2012 INPUT READ FROM UNIT   13
 # Tucson Model 1940 to 2010 Pumpage File
 # File Date: 02/3/2014
 # TARP pumpage reduced by 95%
 # Source: H:\TUCSON\GIS\SHAPEFILES\MODEL_PUMPAGE1940-2010_V7.DBF
 No named parameters
 MAXIMUM OF   6000 ACTIVE WELLS AT ONE TIME
 CELL-BY-CELL FLOWS WILL BE SAVED ON UNIT   39
 LISTS OF WELL CELLS WILL NOT BE PRINTED
 No named parameters
 
 NEGATIVE PUMPING RATES WILL BE REDUCED IF HEAD 
 FALLS WITHIN THE INTERVAL PHIRAMP TIMES THE CELL 
 THICKNESS. THE VALUE SPECIFIED FOR PHIRAMP IS  0.20000E-01
 WELLS WITH REDUCED PUMPING WILL BE REPORTED TO FILE UNIT NUMBER   35


     0 Well parameters

 EVT -- EVAPOTRANSPIRATION PACKAGE, VERSION 7, 5/2/2005
         INPUT READ FROM UNIT   14
 #  TUCSON MODEL UPDATE 1940-2010: EVT PACKAGE
 #  Et Rates converted to ac-ft per year
 #  All ET set to be drawn from the upper most layer
 #  Max ET Rate increased 25%:  Multiplier increased 1.7123E-5 -> 2.1406E-5
 No named parameters
 OPTION 1 -- EVAPOTRANSPIRATION FROM TOP LAYER
 CELL-BY-CELL FLOWS WILL BE SAVED ON UNIT   39


     0 Evapotranspiration parameters

 RCH -- RECHARGE PACKAGE, VERSION 7, 5/2/2005 INPUT READ FROM UNIT   16
 #  Recharge Package 1940 -> 2010 - 04/23/2014
 #  Ag recharge percentages are 33-28-25
 #  Recharge package with mountain-front and
 #  lagged USF recharge for LSCRP fixed
 #
 No named parameters
 OPTION 3 -- RECHARGE TO HIGHEST ACTIVE NODE IN EACH VERTICAL COLUMN
 CELL-BY-CELL FLOWS WILL BE SAVED ON UNIT   39


     0 Recharge parameters

 CHD -- TIME-VARIANT SPECIFIED-HEAD OPTION, VERSION 7, 5/2/2005
 INPUT READ FROM UNIT   15
 # Constant Head Package: 1940-2010
 # Tucson Groundwater Flow Model Transient Phase
 # Created using text file test1.txt - 2/23/2012
 # Pinal heads are 8 feet less than the simulated heads
 No named parameters
 MAXIMUM OF     63 TIME-VARIANT SPECIFIED-HEAD CELLS AT ONE TIME
 LISTS OF TIME-VARIANT SPECIFIED-HEAD CELLS WILL NOT BE PRINTED


     0 TIME-VARIANT SPECIFIED-HEAD PARAMETERS

 HYD -- HYDROGRAPH DATA FOR BAS PACKAGE, VERSION 7, 07/14/2006
         INPUT READ FROM UNIT  9
 HYDROGRAPH VALUES WILL BE SAVED ON UNIT:  33
 HYDROGRAPH VALUES AT DRY CELLS WILL BE:   -666.00    

 ARR INTYP  KLAY     XL            YL         HYDLBL
 ----------------------------------------------------------------
 HD   I      2   3.47180E+04   3.26272E+05  HDI002D-10-09-12CBC 
 HD   I      2   3.17923E+04   3.21696E+05  HDI002D-10-09-14CAA 
 HD   I      2   3.97879E+04   3.15080E+05  HDI002D-10-09-24DDD 
 HD   I      2   5.02884E+04   3.31393E+05  HDI002D-10-10-05DAD 
 HD   I      1   4.83013E+04   3.14224E+05  HDI001D-10-10-20DCC 
 HD   I      3   1.67311E+05   3.29260E+05  HDI003D-10-13-12DDA 
 HD   I      2   1.76511E+05   3.12900E+05  HDI002D-10-14-29DCA 
 HD   I      2   4.73275E+04   2.95880E+05  HDI002D-11-10-08DDD 
 HD   I      2   5.79602E+04   2.94616E+05  HDI002D-11-10-15AAD 
 HD   I      2   5.77270E+04   2.87908E+05  HDI002D-11-10-22ADD1
 HD   I      2   6.83979E+04   2.90445E+05  HDI002D-11-10-24AAA 
 HD   I      2   6.83646E+04   2.80636E+05  HDI002D-11-10-25DDA2
 HD   I      2   8.22753E+04   2.91424E+05  HDI002D-11-11-16CDD1
 HD   I      3   8.22753E+04   2.91424E+05  HDI003D-11-11-16CDD1
 HD   I      2   9.15970E+04   2.83525E+05  HDI002D-11-11-26BDC 
 HD   I      2   8.99591E+04   2.78174E+05  HDI002D-11-11-34ADD 
 HD   I      3   8.99591E+04   2.78174E+05  HDI003D-11-11-34ADD 
 HD   I      2   5.24735E+04   2.64223E+05  HDI002D-12-10-09DDD 
 HD   I      2   6.44744E+04   2.64189E+05  HDI002D-12-10-12CDD2
 HD   I      3   6.44744E+04   2.64189E+05  HDI003D-12-10-12CDD2
 HD   I      2   9.67445E+04   2.67696E+05  HDI002D-12-11-12BDC 
 HD   I      2   7.95249E+04   2.59465E+05  HDI002D-12-11-20AAA 
 HD   I      2   1.13419E+05   2.63389E+05  HDI002D-12-12-16BAD 
 HD   I      2   1.20442E+05   2.57249E+05  HDI002D-12-12-22ADC 
 HD   I      2   1.15974E+05   2.48533E+05  HDI002D-12-12-33AAA 
 HD   I      2   1.36473E+05   2.50639E+05  HDI002D-12-13-30DAC 
 HD   I      2   1.69992E+05   2.69936E+05  HDI002D-12-14-05CCD 
 HD   I      3   4.96494E+04   2.37760E+05  HDI003D-13-10-04CDD 
 HD   I      3   6.03308E+04   2.21868E+05  HDI003D-13-10-23CDD 
 HD   I      2   6.83726E+04   2.11442E+05  HDI002D-13-11-31CCC1
 HD   I      3   6.83726E+04   2.11442E+05  HDI003D-13-11-31CCC1
 HD   I      2   1.37326E+05   2.43566E+05  HDI002D-13-13-06AAA2
 HD   I      2   1.27238E+05   2.38920E+05  HDI002D-13-13-06DDD 
 HD   I      2   1.39899E+05   2.38212E+05  HDI002D-13-13-08BAA 
 HD   I      2   1.59116E+05   2.33159E+05  HDI002D-13-13-13BBA 
 HD   I      1   1.42469E+05   2.29623E+05  HDI001D-13-13-17DAD 
 HD   I      1   1.44785E+05   2.27704E+05  HDI001D-13-13-21BAA 
 HD   I      2   1.47530E+05   2.19924E+05  HDI002D-13-13-28ADD 
 HD   I      2   1.47273E+05   2.13662E+05  HDI002D-13-13-33DAC 
 HD   I      2   1.62726E+05   2.12350E+05  HDI002D-13-13-36DDC 
 HD   I      2   1.63835E+05   2.27705E+05  HDI002D-13-14-19BBB1
 HD   I      2   1.85724E+05   2.22468E+05  HDI002D-13-14-26BBB 
 HD   I      2   1.81350E+05   2.17816E+05  HDI002D-13-14-27CDC1
 HD   I      2   1.84441E+05   2.16607E+05  HDI002D-13-14-34AAD 
 HD   I      1   1.91401E+05   2.12372E+05  HDI001D-13-14-36CCD 
 HD   I      1   2.15602E+05   2.17461E+05  HDI001D-13-15-27DDC 
 HD   I      2   7.39286E+04   2.00922E+05  HDI002D-14-11-08CCC1
 HD   I      3   7.39286E+04   2.00922E+05  HDI003D-14-11-08CCC1
 HD   I      2   7.87016E+04   1.85152E+05  HDI002D-14-11-29DDD 
 HD   I      3   1.49677E+05   2.08711E+05  HDI003D-14-13-03CAC 
 HD   I      2   1.56033E+05   1.88406E+05  HDI002D-14-13-26DBB 
 HD   I      2   1.52252E+05   1.83052E+05  HDI002D-14-13-34ADC 
 HD   I      2   1.55001E+05   1.82547E+05  HDI002D-14-13-35CAB 
 HD   I      2   1.70627E+05   2.06292E+05  HDI002D-14-14-08BAB 
 HD   I      2   1.82652E+05   2.04281E+05  HDI002D-14-14-10ACC1
 HD   I      2   1.86523E+05   1.97819E+05  HDI002D-14-14-14CAC 
 HD   I      2   1.74670E+05   1.98415E+05  HDI002D-14-14-16CBB1
 HD   I      2   1.69775E+05   1.93563E+05  HDI002D-14-14-20CBB 
 HD   I      2   1.90402E+05   1.85499E+05  HDI002D-14-14-35AAA 
 HD   I      2   2.21974E+05   2.07776E+05  HDI002D-14-15-02DDA1
 HD   I      2   2.00261E+05   2.00463E+05  HDI002D-14-15-18AAC 
 HD   I      2   2.01057E+05   1.85311E+05  HDI002D-14-15-32BBB 
 HD   I      2   6.25477E+04   1.52763E+05  HDI002D-15-10-35AAA 
 HD   I      3   7.41254E+04   1.74757E+05  HDI003D-15-11-05CCD 
 HD   I      2   9.44895E+04   1.72190E+05  HDI002D-15-11-11ADD 
 HD   I      3   9.44895E+04   1.72190E+05  HDI003D-15-11-11ADD 
 HD   I      1   1.56722E+05   1.78910E+05  HDI001D-15-13-02ACA1
 HD   I      1   1.54144E+05   1.71940E+05  HDI001D-15-13-11CBA 
 HD   I      1   1.51394E+05   1.58706E+05  HDI001D-15-13-27ABB1
 HD   I      3   1.85084E+05   1.76604E+05  HDI003D-15-14-03DAD 
 HD   I      2   1.64631E+05   1.71336E+05  HDI002D-15-14-07CBC 
 HD   I      3   1.64120E+05   1.59214E+05  HDI003D-15-14-19CCC 
 HD   I      3   1.64123E+05   1.50829E+05  HDI003D-15-14-31CBB1
 HD   I      2   1.95823E+05   1.79748E+05  HDI002D-15-15-06BBB 
 HD   I      2   2.24838E+05   1.54948E+05  HDI002D-15-15-25DBC2
 HD   I      2   3.63196E+04   1.29003E+05  HDI002D-16-09-24DAC 
 HD   I      2   7.41227E+04   1.37178E+05  HDI002D-16-11-08CCC 
 HD   I      3   1.52254E+05   1.20824E+05  HDI003D-16-13-34AAB2
 HD   I      2   1.54404E+05   1.47695E+05  HDI002D-16-13S02BBA2
 HD   I      1   1.65161E+05   1.37495E+05  HDI001D-16-14-07CCD 
 HD   I      2   1.64907E+05   1.26989E+05  HDI002D-16-14-19CCD 
 HD   I      2   1.73942E+05   1.30732E+05  HDI002D-16-14-20ADA 
 HD   I      2   1.71539E+05   1.19012E+05  HDI002D-16-14-32BDD2
 HD   I      2   1.99234E+05   1.37930E+05  HDI002D-16-15-18ABD 
 HD   I      3   2.41308E+05   1.38623E+05  HDI003D-16-16-09DCD2
 HD   I      2   1.60003E+05   1.13653E+05  HDI002D-17-13-01CAB 
 HD   I      1   1.58891E+05   8.63786E+04  HDI001D-17-13-36CBC2
 HD   I      2   1.71895E+05   1.00122E+05  HDI002D-17-14-17DCC 
 HD   I      2   1.63972E+05   9.43603E+04  HDI002D-17-14-30BBB 
 HD   I      3   2.20194E+05   1.13015E+05  HDI003D-17-15-02DCD 
 HD   I      2   1.61219E+05   7.99142E+04  HDI002D-18-13-01CDA 
 HD   I      2   1.59669E+05   7.08220E+04  HDI002D-18-13-13CBA 
 HD   I      2   1.58637E+05   6.21349E+04  HDI002D-18-13-26AAD 
 HD   I      1   1.54583E+05   5.80934E+04  HDI001D-18-13-26CCD 
 HD   I      1   1.58984E+05   5.56700E+04  HDI001D-18-13-36BCC 
 HD   I      1   1.45440E+05   4.50633E+04  HDI001D-19-13-09CAA 
 HD   I      2   1.38013E+05   2.95093E+04  HDI002D-19-13-29BCC 
 HD   I      2   1.48392E+05   2.59222E+05  HDI002D-12-13-22BBB 
 HD   I      3   2.21974E+05   2.07776E+05  HDI003D-14-15-02DDA1
 HD   I      1   1.74585E+05   1.96698E+05  HDI001D-14-14-16CCC1
 HD   I      2   1.74585E+05   1.96698E+05  HDI002D-14-14-16CCC2
 HD   I      3   1.74585E+05   1.96698E+05  HDI003D-14-14-16CCC3
 HD   I      1   2.06415E+05   1.66732E+05  HDI001D-15-15-16CBB1
 HD   I      2   2.06415E+05   1.66732E+05  HDI002D-15-15-16CBB2
 HD   I      3   2.06415E+05   1.66732E+05  HDI003D-15-15-16CBB3
 HD   I      1   2.00772E+05   1.45509E+05  HDI001D-16-15-05CBC1
 HD   I      2   2.00772E+05   1.45509E+05  HDI002D-16-15-05CBC2
 HD   I      3   2.00772E+05   1.45509E+05  HDI003D-16-15-05CBC3

 OBS2BAS7 -- HEAD OBSERVATIONS, VERSION 2.0, 2/28/2006
 INPUT READ FROM UNIT   8
 # Tucson Update 1940-2011 Head Observation File
 # HOB Package with observed heads 1940-2011

 NUMBER OF HEADS....................................: 8395
   NUMBER OF MULTILAYER HEADS.......................: 2560
   MAXIMUM NUMBER OF LAYERS FOR MULTILAYER HEADS....:    3
 HEAD OBSERVATIONS WILL BE SAVED ON UNIT............:   34
 SIMULATED EQUIVALENT HEAD AT DRY CELLS WILL BE:   -666.000    

 OBSERVED HEAD DATA -- TIME OFFSETS ARE MULTIPLIED BY:  1.00000    

                    REFER.
       OBSERVATION  STRESS    TIME
  OBS#    NAME      PERIOD   OFFSET    OBSERVATION
     1 3522-15-337      1    365.0       2965.    
 Observation within a steady-state time step has been moved to the end of the time step.
     2 3489-20-74       1    365.0       2968.    
 Observation within a steady-state time step has been moved to the end of the time step.
     3 3485-19-34       1    365.0       2966.    
 Observation within a steady-state time step has been moved to the end of the time step.
     4 3465-20-300      1    365.0       2968.    
 Observation within a steady-state time step has been moved to the end of the time step.
     5 3415-15-154      1    365.0       2955.    
 Observation within a steady-state time step has been moved to the end of the time step.
     6 3314-43-7        1    365.0       2830.    
 Observation within a steady-state time step has been moved to the end of the time step.
     7 3241-5-82        1    365.0       2709.    
 Observation within a steady-state time step has been moved to the end of the time step.
     8 3384-7-41        7    41.00       1626.    
     9 3384-12-10      12   10.000       1613.    
    10 3384-16-340     16    340.0       1572.    
    11 3384-21-335     21    335.0       1549.    
    12 3384-27-13      27    13.00       1531.    
    13 3384-32-5       32    5.000       1517.    
    14 3384-36-349     36    349.0       1499.    
    15 3400-55-321     55    321.0       1558.    
    16 3400-60-312     60    312.0       1568.    
    17 3400-65-363     65    363.0       1583.    
    18 3400-71-349     71    349.0       1600.    
    19 3401-55-321     55    321.0       1613.    
    20 3401-60-312     60    312.0       1621.    
    21 3401-65-363     65    363.0       1631.    
    22 3401-71-349     71    349.0       1650.    
    23 3397-11-313     11    313.0       1674.    
    24 3361-21-339     21    339.0       1555.    
    25 3361-32-5       32    5.000       1524.    
    26 3346-16-340     16    340.0       1573.    
    27 3346-21-339     21    339.0       1537.    
    28 3346-32-5       32    5.000       1495.    
    29 3346-37-349     37    349.0       1474.    
    30 3346-49-54      49    54.00       1506.    
    31 3346-60-319     60    319.0       1517.    
    32 3346-65-298     65    298.0       1529.    
    33 3346-71-13      71    13.00       1544.    
    34 3376-6-41        6    41.00       1665.    
    35 3376-12-46      12    46.00       1648.    
    36 3376-16-362     16    362.0       1635.    
    37 3376-21-336     21    336.0       1591.    
    38 3376-27-12      27    12.00       1561.    
    39 3376-38-1       38   1.0000       1527.    
    40 3327-56-26      56    26.00       1579.    
    41 3327-66-18      66    18.00       1601.    
    42 3306-1-32        1    32.00       1688.    
 Observation within a steady-state time step has been moved to the end of the time step.
    43 3299-38-41      38    41.00       1546.    
    44 3311-15-337     15    337.0       2982.    
    45 3313-32-7       32    7.000       1579.    
    46 3313-38-1       38   1.0000       1560.    
    47 3313-56-26      56    26.00       1601.    
    48 3313-66-18      66    18.00       1626.    
    49 3303-56-26      56    26.00       1600.    
    50 3303-66-18      66    18.00       1624.    
    51 3302-12-32      12    32.00       1680.    
    52 3302-56-26      56    26.00       1606.    
    53 3302-66-18      66    18.00       1633.    
    54 3320-2-305       2    305.0       1680.    
    55 3324-26-339     26    339.0       1550.    
    56 3312-16-335     16    335.0       1604.    
    57 3312-21-335     21    335.0       1576.    
    58 3312-32-1       32   1.0000       1537.    
    59 3312-36-51      36    51.00       1523.    
    60 3294-1-60        1    60.00       1692.    
 Observation within a steady-state time step has been moved to the end of the time step.
    61 3291-16-362     16    362.0       1650.    
    62 3288-12-32      12    32.00       1671.    
    63 3288-21-335     21    335.0       1622.    
    64 3288-32-7       32    7.000       1602.    
    65 3282-21-336     21    336.0       1628.    
    66 3282-32-7       32    7.000       1604.    
    67 3282-38-10      38   10.000       1584.    
    68 3285-5-179       5    179.0       1699.    
    69 3285-11-25      11    25.00       1690.    
    70 3285-16-341     16    341.0       1666.    
    71 3285-21-336     21    336.0       1639.    
    72 3279-12-39      12    39.00       1679.    
    73 3279-16-362     16    362.0       1650.    
    74 3279-21-341     21    341.0       1639.    
    75 3279-27-28      27    28.00       1624.    
    76 3281-21-336     21    336.0       1635.    
    77 3281-37-350     37    350.0       1573.    
    78 3268-21-274     21    274.0       1652.    
    79 3268-38-6       38    6.000       1576.    
    80 3259-16-348     16    348.0       1684.    
     MULTIPLE LAYERS AND PROPORTIONS :    1, 0.19       2, 0.69       3, 0.12
    81 3259-32-7       32    7.000       1619.    
     MULTIPLE LAYERS AND PROPORTIONS :    2, 0.69       3, 0.31
    82 3259-36-350     36    350.0       1606.    
     MULTIPLE LAYERS AND PROPORTIONS :    2, 0.88       3, 0.12
    83 3237-1-365       1    365.0       1723.    
 Observation within a steady-state time step has been moved to the end of the time step.
    84 3237-3-355       3    355.0       1721.    
    85 3237-12-59      12    59.00       1713.    
    86 3237-12-59      12    59.00       1713.    
    87 3234-6-284       6    284.0       1719.    
    88 3234-12-32      12    32.00       1710.    
    89 3234-16-348     16    348.0       1689.    
    90 3231-21-341     21    341.0       1661.    
     MULTIPLE LAYERS AND PROPORTIONS :    2, 0.28       3, 0.72
    91 3231-27-12      27    12.00       1642.    
     MULTIPLE LAYERS AND PROPORTIONS :    2, 0.28       3, 0.72
    92 3231-38-3       38    3.000       1595.    
     MULTIPLE LAYERS AND PROPORTIONS :    2, 0.28       3, 0.72
    93 3382-48-363     48    363.0       1604.    
    94 3383-48-363     48    363.0       1619.    
    95 3363-56-23      56    23.00       1632.    
    96 3363-66-18      66    18.00       1646.    
    97 3364-11-342     11    342.0       1694.    
     MULTIPLE LAYERS AND PROPORTIONS :    1, 0.15       2, 0.85
    98 3364-16-362     16    362.0       1671.    
     MULTIPLE LAYERS AND PROPORTIONS :    1, 0.15       2, 0.85
    99 3364-21-341     21    341.0       1646.    
     MULTIPLE LAYERS AND PROPORTIONS :    1, 0.15       2, 0.85
   100 3364-27-28      27    28.00       1639.    
   101 3364-32-4       32    4.000       1621.    
   102 3364-36-349     36    349.0       1617.    
   103 3364-43-19      43    19.00       1616.    
   104 3364-49-54      49    54.00       1622.    
   105 3364-56-25      56    25.00       1626.    
   106 3364-60-319     60    319.0       1628.    
   107 3364-65-298     65    298.0       1635.    
     MULTIPLE LAYERS AND PROPORTIONS :    1, 0.15       2, 0.85
   108 3364-71-13      71    13.00       1648.    
     MULTIPLE LAYERS AND PROPORTIONS :    1, 0.15       2, 0.85
   109 3364-71-365     71    365.0       1652.    
     MULTIPLE LAYERS AND PROPORTIONS :    1, 0.15       2, 0.85
   110 3370-56-25      56    25.00       1623.    
   111 3370-61-72      61    72.00       1628.    
   112 3370-66-18      66    18.00       1637.    
   113 3353-21-335     21    335.0       1659.    
   114 3353-27-12      27    12.00       1646.    
   115 3353-56-25      56    25.00       1627.    
   116 3353-66-18      66    18.00       1635.    
   117 3351-56-25      56    25.00       1628.    
   118 3351-61-72      61    72.00       1629.    
   119 3351-66-18      66    18.00       1639.    
   120 3310-56-23      56    23.00       1643.    
   121 3307-56-23      56    23.00       1644.    
   122 3307-61-73      61    73.00       1649.    
   123 3307-66-20      66    20.00       1676.    
   124 3292-56-25      56    25.00       1630.    
     MULTIPLE LAYERS AND PROPORTIONS :    2, 0.35       3, 0.65
   125 3292-61-73      61    73.00       1638.    
     MULTIPLE LAYERS AND PROPORTIONS :    2, 0.35       3, 0.65
   126 3292-66-19      66    19.00       1663.    
     MULTIPLE LAYERS AND PROPORTIONS :    2, 0.35       3, 0.65
   127 3278-11-296     11    296.0       1706.    
   128 3278-16-343     16    343.0       1693.    
   129 3278-21-340     21    340.0       1664.    
   130 3278-27-12      27    12.00       1658.    
   131 3278-32-4       32    4.000       1650.    
   132 3278-36-350     36    350.0       1648.    
   133 3278-43-19      43    19.00       1650.    
   134 3278-49-54      49    54.00       1656.    
   135 3278-56-25      56    25.00       1656.    
   136 3278-60-319     60    319.0       1660.    
   137 3278-65-301     65    301.0       1670.    
   138 3278-71-13      71    13.00       1684.    
   139 3278-71-365     71    365.0       1686.    
   140 3290-56-25      56    25.00       1638.    
     MULTIPLE LAYERS AND PROPORTIONS :    2, 0.84       3, 0.16
   141 3290-61-73      61    73.00       1647.    
     MULTIPLE LAYERS AND PROPORTIONS :    2, 0.84       3, 0.16
   142 3290-66-19      66    19.00       1671.    
     MULTIPLE LAYERS AND PROPORTIONS :    2, 0.84       3, 0.16
   143 3250-12-32      12    32.00       1737.    
   144 3250-16-363     16    363.0       1711.    
   145 3250-21-335     21    335.0       1688.    
   146 3250-32-7       32    7.000       1652.    
   147 3250-36-352     36    352.0       1632.    
   148 3308-56-25      56    25.00       1672.    
     MULTIPLE LAYERS AND PROPORTIONS :    2, 0.78       3, 0.22
   149 3308-61-73      61    73.00       1673.    
     MULTIPLE LAYERS AND PROPORTIONS :    2, 0.78       3, 0.22
   150 3308-66-20      66    20.00       1698.    
     MULTIPLE LAYERS AND PROPORTIONS :    2, 0.78       3, 0.22
   151 3249-16-363     16    363.0       1709.    
   152 3249-21-340     21    340.0       1688.    
   153 3249-36-352     36    352.0       1660.    
   154 3249-56-25      56    25.00       1688.    
   155 3249-61-73      61    73.00       1698.    
   156 3233-3-355       3    355.0       1744.    
   157 3233-6-341       6    341.0       1743.    
   158 3233-12-59      12    59.00       1737.    
   159 3233-16-311     16    311.0       1725.    
   160 3230-16-348     16    348.0       1722.    
     MULTIPLE LAYERS AND PROPORTIONS :    1, 0.45       2, 0.55
   161 3230-21-340     21    340.0       1705.    
     MULTIPLE LAYERS AND PROPORTIONS :    1, 0.45       2, 0.55
   162 3230-27-1       27   1.0000       1694.    
     MULTIPLE LAYERS AND PROPORTIONS :    1, 0.45       2, 0.55
   163 3230-32-7       32    7.000       1702.    
     MULTIPLE LAYERS AND PROPORTIONS :    1, 0.45       2, 0.55
   164 3230-36-352     36    352.0       1682.    
   165 3230-56-25      56    25.00       1711.    
   166 3230-61-72      61    72.00       1716.    
   167 3229-17-4       17    4.000       1729.    
     MULTIPLE LAYERS AND PROPORTIONS :    1, 0.89       2, 0.11
   168 3247-61-73      61    73.00       1711.    
   169 3247-66-20      66    20.00       1715.    
   170 3368-56-25      56    25.00       1668.    
   171 3333-12-10      12   10.000       1744.    
   172 3333-16-343     16    343.0       1741.    
   173 3333-32-85      32    85.00       1693.    
   174 3333-35-53      35    53.00       1685.    
   175 3332-49-54      49    54.00       1671.    
   176 3332-56-26      56    26.00       1674.    
   177 3332-60-319     60    319.0       1679.    
   178 3332-65-298     65    298.0       1687.    
   179 3332-71-13      71    13.00       1699.    
   180 3332-71-365     71    365.0       1701.    
   181 3330-56-25      56    25.00       1659.    
   182 3315-48-300     48    300.0       1659.    
   183 3315-55-321     55    321.0       1664.    
   184 3315-60-312     60    312.0       1666.    
   185 3315-65-363     65    363.0       1676.    
   186 3315-71-351     71    351.0       1691.    
   187 3316-48-300     48    300.0       1658.    
   188 3316-55-321     55    321.0       1663.    
   189 3316-60-312     60    312.0       1666.    
   190 3316-65-363     65    363.0       1677.    
   191 3316-71-351     71    351.0       1692.    
   192 3284-56-25      56    25.00       1689.    
   193 3275-38-12      38    12.00       1709.    
   194 3287-38-24      38    24.00       1676.    
   195 3265-48-364     48    300.0       1671.    
   196 3265-56-25      56    25.00       1676.    
     MULTIPLE LAYERS AND PROPORTIONS :    2, 0.47       3, 0.53
   197 3228-56-20      56    20.00       1682.    
     MULTIPLE LAYERS AND PROPORTIONS :    1, 0.16       2, 0.84
   198 3228-61-73      61    73.00       1697.    
     MULTIPLE LAYERS AND PROPORTIONS :    1, 0.16       2, 0.84
   199 3228-66-19      66    19.00       1727.    
     MULTIPLE LAYERS AND PROPORTIONS :    1, 0.16       2, 0.84
   200 3347-20-74      20    74.00       2968.    
   201 3347-26-157     37    33.00       2967.    
   202 3347-37-33      37    33.00       2963.    
   203 3347-43-82      43    82.00       2967.    
   204 3347-48-336     48    336.0       2971.    
   205 3347-56-23      56    23.00       2969.    
   206 3347-61-62      61    62.00       2971.    
   207 3347-65-299     65    299.0       2969.    
   208 3347-71-12      71    12.00       2966.    
   209 3347-71-365     71    365.0       2966.    
   210 3378-15-337     15    337.0       2965.    
   211 3378-26-127     26    112.0       2971.    
   212 3378-33-312     33    312.0       2954.    
   213 3378-43-82      43    82.00       2971.    
   214 3378-48-337     48    337.0       2976.    
   215 3378-56-23      56    23.00       2976.    
   216 3378-61-62      61    62.00       2976.    
   217 3378-66-18      66    18.00       2972.    
   218 3336-71-63      71    63.00       2981.    
   219 3343-19-34      19    34.00       2966.    
   220 3343-26-121     26    121.0       2966.    
   221 3343-33-311     33    311.0       2952.    
   222 3343-43-82      43    82.00       2975.    
   223 3343-48-336     48    336.0       2978.    
   224 3343-56-25      56    25.00       2977.    
   225 3343-61-62      61    62.00       2975.    
   226 3343-66-24      66    24.00       2971.    
   227 3343-71-63      71    63.00       2963.    
   228 3322-20-300     20    300.0       2968.    
   229 3322-26-127     26    127.0       2967.    
   230 3322-48-337     48    337.0       2973.    
   231 3322-56-25      56    25.00       2963.    
   232 3322-61-60      61    60.00       2964.    
   233 3317-43-85      43    85.00       2959.    
   234 3317-56-25      56    25.00       2964.    
   235 3317-61-60      61    60.00       2961.    
   236 3317-66-27      66    27.00       2959.    
   237 3317-71-64      71    64.00       2962.    
   238 3300-56-26      56    26.00       2995.    
   239 3289-56-26      56    26.00       3009.    
   240 3289-61-65      61    65.00       2998.    
   241 3276-56-26      56    26.00       3018.    
   242 3270-56-26      56    26.00       2964.    
   243 3272-15-154     15    154.0       2955.    
   244 3272-26-125     26    125.0       2957.    
   245 3272-37-36      37    36.00       2947.    
   246 3272-43-27      43    27.00       2962.    
   247 3272-48-336     48    336.0       2970.    
   248 3272-56-26      56    26.00       2966.    
   249 3272-61-60      61    60.00       2962.    
   250 3272-71-12      71    12.00       2947.    
   251 3266-56-26      56    26.00       2956.    
   252 3260-33-313     33    313.0       3027.    
   253 3260-48-334     48    334.0       3050.    
   254 3260-56-26      56    26.00       3044.    
   255 3222-38-6       38    6.000       1714.    
   256 3213-12-324     12    324.0       1725.    
   257 3213-16-335     16    335.0       1716.    
   258 3213-21-335     21    335.0       1699.    
   259 3213-32-7       32    7.000       1680.    
   260 3213-38-10      38   10.000       1660.    
   261 3213-56-19      56    19.00       1689.    
   262 3205-2-230       2    230.0       1730.    
     MULTIPLE LAYERS AND PROPORTIONS :    1, 0.18       2, 0.82
   263 3205-22-37      22    37.00       1683.    
     MULTIPLE LAYERS AND PROPORTIONS :    1, 0.18       2, 0.82
   264 3191-2-188       2    188.0       1745.    
   265 3178-17-4       17    4.000       1713.    
   266 3178-22-37      22    37.00       1688.    
   267 3178-32-85      32    85.00       1649.    
   268 3178-36-65      36    65.00       1610.    
   269 3178-42-349     42    349.0       1623.    
   270 3178-48-341     48    341.0       1643.    
   271 3178-56-23      56    23.00       1655.    
   272 3178-60-319     60    319.0       1671.    
   273 3177-17-4       17    4.000       1713.    
     MULTIPLE LAYERS AND PROPORTIONS :    1, 0.18       2, 0.82
   274 3176-11-297     11    297.0       1743.    
     MULTIPLE LAYERS AND PROPORTIONS :    1, 0.31       2, 0.69
   275 3176-16-342     16    342.0       1718.    
     MULTIPLE LAYERS AND PROPORTIONS :    1, 0.31       2, 0.69
   276 3176-21-342     21    342.0       1691.    
     MULTIPLE LAYERS AND PROPORTIONS :    1, 0.31       2, 0.69
   277 3176-32-7       32    7.000       1633.    
   278 3176-34-339     34    339.0       1628.    
   279 3174-21-335     21    335.0       1695.    
   280 3174-56-19      56    19.00       1680.    
   281 3174-61-60      61    60.00       1690.    
   282 3174-66-24      66    24.00       1723.    
   283 3188-2-335       2    335.0       1755.    
   284 3188-6-341       6    341.0       1754.    
   285 3188-10-350     10    350.0       1750.    
   286 3199-38-6       38    6.000       1636.    
     MULTIPLE LAYERS AND PROPORTIONS :    2, 0.82       3, 0.18
   287 3199-48-337     48    337.0       1674.    
     MULTIPLE LAYERS AND PROPORTIONS :    2, 0.82       3, 0.18
   288 3199-61-60      61    60.00       1705.    
     MULTIPLE LAYERS AND PROPORTIONS :    2, 0.82       3, 0.18
   289 3175-48-337     48    337.0       1664.    
   290 3175-56-19      56    19.00       1686.    
   291 3175-66-24      66    24.00       1729.    
   292 3196-56-19      56    19.00       1688.    
   293 3171-21-335     21    335.0       1716.    
   294 3171-26-313     26    313.0       1672.    
   295 3171-48-337     48    337.0       1698.    
   296 3173-48-337     48    337.0       1672.    
   297 3173-56-19      56    19.00       1692.    
   298 3173-61-60      61    60.00       1701.    
   299 3173-66-20      66    20.00       1730.    
   300 3172-56-19      56    19.00       1682.    
   301 3172-61-60      61    60.00       1691.    
   302 3172-66-24      66    24.00       1723.    
   303 3163-12-91      12    91.00       1748.    
   304 3163-21-335     21    335.0       1701.    
   305 3197-42-351     42    351.0       1684.    
     MULTIPLE LAYERS AND PROPORTIONS :    2, 0.43       3, 0.57
   306 3197-48-348     48    348.0       1700.    
     MULTIPLE LAYERS AND PROPORTIONS :    2, 0.43       3, 0.57
   307 3197-56-4       56    4.000       1699.    
     MULTIPLE LAYERS AND PROPORTIONS :    2, 0.43       3, 0.57
   308 3197-61-5       61    5.000       1719.    
     MULTIPLE LAYERS AND PROPORTIONS :    2, 0.43       3, 0.57
   309 3197-65-361     65    361.0       1745.    
     MULTIPLE LAYERS AND PROPORTIONS :    2, 0.43       3, 0.57
   310 3197-71-355     71    355.0       1748.    
     MULTIPLE LAYERS AND PROPORTIONS :    2, 0.43       3, 0.57
   311 3170-16-348     16    348.0       1732.    
     MULTIPLE LAYERS AND PROPORTIONS :    1, 0.13       2, 0.87
   312 3170-21-342     21    342.0       1703.    
   313 3170-38-6       38    6.000       1681.    
   314 3170-42-351     42    351.0       1737.    
   315 3170-48-348     48    348.0       1694.    
   316 3170-55-354     55    354.0       1703.    
   317 3170-61-5       61    5.000       1725.    
   318 3170-65-361     65    361.0       1751.    
   319 3170-71-355     71    355.0       1754.    
   320 3139-21-343     21    343.0       1698.    
   321 3139-71-355     71    355.0       1747.    
   322 3143-17-5       17    5.000       1732.    
   323 3143-22-37      22    37.00       1708.    
   324 3143-27-31      27    31.00       1695.    
   325 3143-55-354     55    354.0       1694.    
   326 3143-61-5       61    5.000       1720.    
   327 3143-65-361     65    361.0       1757.    
   328 3143-71-355     71    355.0       1760.    
   329 3166-1-1         1   1.0000       1748.    
 Observation within a steady-state time step has been moved to the end of the time step.
     MULTIPLE LAYERS AND PROPORTIONS :    2, 0.54       3, 0.46
   330 3166-11-335     11    335.0       1738.    
     MULTIPLE LAYERS AND PROPORTIONS :    2, 0.54       3, 0.46
   331 3166-21-335     21    335.0       1680.    
     MULTIPLE LAYERS AND PROPORTIONS :    2, 0.54       3, 0.46
   332 3100-16-338     16    338.0       1730.    
   333 3100-21-335     21    335.0       1703.    
     MULTIPLE LAYERS AND PROPORTIONS :    2, 0.76       3, 0.24
   334 3100-43-60      43    60.00       1625.    
   335 3100-55-354     55    354.0       1652.    
   336 3100-61-5       61    5.000       1659.    
     MULTIPLE LAYERS AND PROPORTIONS :    2, 0.76       3, 0.24
   337 3100-66-20      66    20.00       1692.    
     MULTIPLE LAYERS AND PROPORTIONS :    2, 0.76       3, 0.24
   338 3100-71-355     71    355.0       1709.    
     MULTIPLE LAYERS AND PROPORTIONS :    2, 0.76       3, 0.24
   339 2939-42-351     42    351.0       1635.    
   340 2939-61-5       61    5.000       1669.    
   341 2939-70-352     70    352.0       1725.    
   342 2939-71-355     71    355.0       1727.    
   343 3099-21-335     21    335.0       1697.    
     MULTIPLE LAYERS AND PROPORTIONS :    2, 0.38       3, 0.62
   344 3099-61-5       61    5.000       1665.    
     MULTIPLE LAYERS AND PROPORTIONS :    2, 0.38       3, 0.62
   345 3099-66-20      66    20.00       1698.    
     MULTIPLE LAYERS AND PROPORTIONS :    2, 0.38       3, 0.62
   346 3099-71-355     71    355.0       1723.    
     MULTIPLE LAYERS AND PROPORTIONS :    2, 0.38       3, 0.62
   347 3113-1-59        1    59.00       1773.    
 Observation within a steady-state time step has been moved to the end of the time step.
   348 3113-6-341       6    341.0       1768.    
   349 3113-12-362     12    362.0       1752.    
   350 3113-22-37      22    37.00       1703.    
   351 3113-27-31      27    31.00       1697.    
   352 3113-37-341     37    341.0       1653.    
   353 3113-42-349     42    349.0       1684.    
   354 3113-48-341     48    341.0       1664.    
   355 3113-55-354     55    354.0       1694.    
   356 3113-60-319     60    319.0       1716.    
   357 3113-65-298     65    298.0       1744.    
   358 3113-71-355     71    355.0       1757.    
   359 3097-12-170     12    170.0       1744.    
   360 3097-17-5       17    5.000       1723.    
   361 3097-42-351     42    351.0       1664.    
   362 3097-48-348     48    348.0       1679.    
   363 3097-55-354     55    354.0       1696.    
   364 3097-61-5       61    5.000       1718.    
   365 3097-65-361     65    361.0       1750.    
   366 3097-71-355     71    355.0       1760.    
   367 3095-42-351     42    351.0       1666.    
   368 3095-48-348     48    348.0       1682.    
   369 3095-55-354     55    354.0       1698.    
   370 3095-61-5       61    5.000       1720.    
   371 3095-65-361     65    361.0       1752.    
   372 3095-71-355     71    355.0       1761.    
   373 3096-8-283       8    283.0       1773.    
     MULTIPLE LAYERS AND PROPORTIONS :    1, 0.20       2, 0.80
   374 3096-17-5       17    5.000       1736.    
     MULTIPLE LAYERS AND PROPORTIONS :    1, 0.20       2, 0.80
   375 3096-21-335     21    335.0       1708.    
   376 3135-8-282       8    282.0       1775.    
     MULTIPLE LAYERS AND PROPORTIONS :    1, 0.11       2, 0.89
   377 3135-11-355     11    355.0       1766.    
     MULTIPLE LAYERS AND PROPORTIONS :    1, 0.11       2, 0.89
   378 3135-16-349     16    349.0       1739.    
     MULTIPLE LAYERS AND PROPORTIONS :    1, 0.11       2, 0.89
   379 3135-21-312     21    312.0       1708.    
   380 3135-26-292     26    292.0       1680.    
   381 3135-38-5       38    5.000       1641.    
   382 3135-48-337     48    337.0       1678.    
   383 3135-56-19      56    19.00       1700.    
   384 3135-61-60      61    60.00       1717.    
   385 3121-55-354     55    354.0       1713.    
   386 3121-61-5       61    5.000       1724.    
   387 3121-66-20      66    20.00       1760.    
   388 3121-71-365     71    365.0       1772.    
   389 3059-10-57      10    57.00       1779.    
   390 3059-17-5       17    5.000       1744.    
   391 3059-27-31      27    31.00       1693.    
   392 3059-37-33      37    33.00       1717.    
   393 3059-42-349     42    349.0       1681.    
   394 3059-48-342     48    342.0       1700.    
   395 3059-56-20      56    20.00       1720.    
   396 3059-60-319     60    319.0       1742.    
   397 3059-65-301     65    301.0       1777.    
   398 3059-71-365     71    365.0       1787.    
   399 3078-21-335     21    335.0       1709.    
   400 3080-11-297     11    297.0       1762.    
     MULTIPLE LAYERS AND PROPORTIONS :    1, 0.12       2, 0.88
   401 3075-56-20      56    20.00       1716.    
   402 3089-2-339       2    339.0       1774.    
   403 3089-6-341       6    341.0       1772.    
   404 3089-12-362     12    362.0       1763.    
   405 3089-16-313     16    313.0       1745.    
   406 3089-42-351     42    351.0       1693.    
   407 3089-65-361     65    361.0       1743.    
   408 3089-71-355     71    355.0       1755.    
   409 3053-11-297     11    297.0       1767.    
   410 3053-16-349     16    349.0       1741.    
   411 3053-22-37      22    37.00       1710.    
   412 3053-32-85      32    85.00       1668.    
   413 3053-42-351     42    351.0       1660.    
   414 3053-48-348     48    348.0       1676.    
   415 3053-55-353     55    353.0       1689.    
   416 3053-61-5       61    5.000       1706.    
   417 3053-65-361     65    361.0       1735.    
   418 3053-71-355     71    355.0       1752.    
   419 3050-55-353     55    353.0       1689.    
   420 3050-61-5       61    5.000       1706.    
   421 3050-65-361     65    361.0       1735.    
   422 3050-71-355     71    355.0       1752.    
   423 3076-37-33      37    33.00       1618.    
   424 3076-42-349     42    349.0       1656.    
   425 3076-48-342     48    342.0       1676.    
   426 3076-56-23      56    23.00       1695.    
   427 3076-61-60      61    60.00       1701.    
   428 3076-66-24      66    24.00       1742.    
   429 3077-55-354     55    354.0       1659.    
   430 3077-61-5       61    5.000       1665.    
   431 3077-66-20      66    20.00       1690.    
   432 3077-71-355     71    355.0       1718.    
   433 3065-48-348     48    348.0       1663.    
     MULTIPLE LAYERS AND PROPORTIONS :    2, 0.27       3, 0.73
   434 3021-1-107       1    107.0       1784.    
 Observation within a steady-state time step has been moved to the end of the time step.
   435 3021-7-3         7    3.000       1782.    
   436 3020-7-3         7    3.000       1781.    
   437 3020-12-59      12    59.00       1775.    
   438 3020-16-314     16    314.0       1755.    
   439 3020-22-37      22    37.00       1731.    
   440 3020-27-31      27    31.00       1697.    
   441 2989-12-59      12    59.00       1780.    
   442 2995-16-313     16    313.0       1748.    
   443 2995-22-37      22    37.00       1734.    
   444 2995-27-31      27    31.00       1719.    
   445 2995-32-85      32    85.00       1723.    
   446 3201-48-300     48    300.0       1676.    
   447 3201-55-321     55    321.0       1685.    
   448 3201-60-312     60    312.0       1692.    
   449 3201-65-363     65    363.0       1706.    
   450 3201-71-10      71   10.000       1726.    
   451 3202-48-300     48    300.0       1678.    
   452 3202-55-321     55    321.0       1687.    
   453 3202-60-312     60    312.0       1696.    
   454 3202-65-363     65    363.0       1720.    
   455 3202-71-10      71   10.000       1745.    
   456 3200-21-335     21    335.0       1763.    
   457 3200-32-6       32    6.000       1728.    
   458 3200-36-351     36    351.0       1712.    
   459 3200-49-54      49    54.00       1695.    
   460 3200-56-24      56    24.00       1699.    
   461 3200-60-319     60    319.0       1706.    
   462 3200-65-298     65    298.0       1718.    
   463 3200-71-365     71    365.0       1736.    
   464 3154-1-337       1    337.0       1791.    
 Observation within a steady-state time step has been moved to the end of the time step.
     MULTIPLE LAYERS AND PROPORTIONS :    1, 0.12       2, 0.88
   465 3154-6-286       6    286.0       1782.    
     MULTIPLE LAYERS AND PROPORTIONS :    1, 0.12       2, 0.88
   466 3154-11-298     11    298.0       1778.    
     MULTIPLE LAYERS AND PROPORTIONS :    1, 0.12       2, 0.88
   467 3154-16-358     16    358.0       1742.    
     MULTIPLE LAYERS AND PROPORTIONS :    1, 0.12       2, 0.88
   468 3154-21-343     21    343.0       1712.    
   469 3154-32-85      32    85.00       1660.    
   470 3154-37-33      37    33.00       1649.    
   471 3154-42-349     42    349.0       1651.    
   472 3150-48-337     48    337.0       1681.    
   473 3150-56-23      56    23.00       1704.    
   474 3150-60-319     60    319.0       1720.    
   475 3150-65-298     65    298.0       1752.    
   476 3150-71-11      71    11.00       1775.    
   477 3150-71-365     71    365.0       1776.    
   478 3158-12-85      12    85.00       1766.    
   479 3158-16-342     16    342.0       1740.    
   480 3158-21-346     21    346.0       1712.    
   481 3158-56-25      56    25.00       1700.    
   482 3158-61-55      61    55.00       1720.    
   483 3158-66-19      66    19.00       1753.    
   484 3179-8-1         8   1.0000       1777.    
     MULTIPLE LAYERS AND PROPORTIONS :    1, 0.12       2, 0.88
   485 3151-12-33      12    33.00       1773.    
   486 3151-16-342     16    342.0       1740.    
   487 3151-21-346     21    346.0       1717.    
   488 3151-56-23      56    23.00       1705.    
   489 3151-61-55      61    55.00       1725.    
   490 3151-66-18      66    18.00       1758.    
   491 3167-34-152     34    152.0       1703.    
   492 3103-38-3       38    3.000       1652.    
   493 3101-66-24      66    24.00       1760.    
     MULTIPLE LAYERS AND PROPORTIONS :    2, 0.76       3, 0.24
   494 3105-8-1         8   1.0000       1789.    
     MULTIPLE LAYERS AND PROPORTIONS :    1, 0.19       2, 0.81
   495 3105-56-23      56    23.00       1710.    
   496 3105-61-55      61    55.00       1731.    
   497 3105-66-18      66    18.00       1767.    
   498 3142-12-1       12   1.0000       1778.    
     MULTIPLE LAYERS AND PROPORTIONS :    1, 0.43       2, 0.57
   499 3142-16-342     16    342.0       1744.    
     MULTIPLE LAYERS AND PROPORTIONS :    1, 0.43       2, 0.57
   500 3142-56-24      56    24.00       1707.    
   501 3142-61-55      61    55.00       1726.    
   502 3142-66-19      66    19.00       1759.    
   503 3138-21-346     21    346.0       1718.    
   504 3138-56-24      56    24.00       1708.    
   505 3138-61-55      61    55.00       1727.    
   506 3138-66-19      66    19.00       1760.    
   507 3119-48-337     48    337.0       1687.    
   508 3119-56-23      56    23.00       1712.    
   509 3119-61-60      61    60.00       1732.    
   510 3119-66-18      66    18.00       1768.    
   511 3130-2-305       2    305.0       1828.    
   512 3108-8-32        8    32.00       1790.    
     MULTIPLE LAYERS AND PROPORTIONS :    1, 0.45       2, 0.55
   513 3104-56-26      56    26.00       1723.    
   514 3104-61-55      61    55.00       1744.    
   515 3104-66-19      66    19.00       1777.    
   516 3102-56-26      56    26.00       1724.    
     MULTIPLE LAYERS AND PROPORTIONS :    2, 0.93       3, 0.07
   517 3102-61-55      61    55.00       1744.    
     MULTIPLE LAYERS AND PROPORTIONS :    2, 0.93       3, 0.07
   518 3102-66-19      66    19.00       1776.    
     MULTIPLE LAYERS AND PROPORTIONS :    2, 0.93       3, 0.07
   519 3140-48-300     48    300.0       1690.    
   520 3141-48-300     48    300.0       1693.    
   521 3061-66-19      66    19.00       1799.    
     MULTIPLE LAYERS AND PROPORTIONS :    2, 0.66       3, 0.34
   522 3085-1-337       1    337.0       1814.    
 Observation within a steady-state time step has been moved to the end of the time step.
     MULTIPLE LAYERS AND PROPORTIONS :    1, 0.27       2, 0.57       3, 0.16
   523 3085-6-286       6    286.0       1805.    
     MULTIPLE LAYERS AND PROPORTIONS :    1, 0.27       2, 0.57       3, 0.16
   524 3085-11-361     11    361.0       1794.    
     MULTIPLE LAYERS AND PROPORTIONS :    1, 0.27       2, 0.57       3, 0.16
   525 3085-16-350     16    350.0       1764.    
     MULTIPLE LAYERS AND PROPORTIONS :    1, 0.27       2, 0.57       3, 0.16
   526 3085-21-346     21    346.0       1739.    
     MULTIPLE LAYERS AND PROPORTIONS :    2, 0.84       3, 0.16
   527 3064-56-25      56    25.00       1746.    
   528 3083-56-23      56    23.00       1725.    
     MULTIPLE LAYERS AND PROPORTIONS :    2, 0.60       3, 0.40
   529 3083-61-55      61    55.00       1747.    
     MULTIPLE LAYERS AND PROPORTIONS :    2, 0.60       3, 0.40
   530 3083-66-18      66    18.00       1785.    
     MULTIPLE LAYERS AND PROPORTIONS :    2, 0.60       3, 0.40
   531 3084-10-60      10    60.00       1787.    
     MULTIPLE LAYERS AND PROPORTIONS :    1, 0.15       2, 0.85
   532 3084-48-341     48    341.0       1690.    
   533 3084-56-23      56    23.00       1716.    
   534 3084-61-55      61    55.00       1737.    
   535 3084-66-18      66    18.00       1775.    
   536 3081-48-341     48    341.0       1690.    
   537 3081-56-23      56    23.00       1714.    
   538 3081-61-55      61    55.00       1736.    
   539 3081-66-18      66    18.00       1774.    
   540 3079-1-365       1    365.0       1791.    
 Observation within a steady-state time step has been moved to the end of the time step.
   541 3058-48-337     48    337.0       1697.    
   542 3058-56-23      56    23.00       1722.    
   543 3058-61-55      61    55.00       1745.    
   544 3058-66-18      66    18.00       1782.    
   545 3086-12-247     12    247.0       1778.    
     MULTIPLE LAYERS AND PROPORTIONS :    1, 0.43       2, 0.57
   546 3107-1-365       1    365.0       1784.    
 Observation within a steady-state time step has been moved to the end of the time step.
   547 3107-11-334     11    334.0       1774.    
   548 3040-10-32      10    32.00       1777.    
   549 3017-71-5       71    5.000       1785.    
   550 3017-71-365     71    365.0       1787.    
   551 3015-55-354     55    354.0       1715.    
   552 3015-71-5       71    5.000       1790.    
   553 3015-71-365     71    365.0       1792.    
   554 3054-10-32      10    32.00       1780.    
   555 3046-12-247     12    247.0       1759.    
   556 3046-16-350     16    350.0       1748.    
   557 3046-21-343     21    343.0       1714.    
   558 3046-32-8       32    8.000       1684.    
   559 3046-36-87      36    87.00       1671.    
   560 3036-11-18      11    18.00       1788.    
     MULTIPLE LAYERS AND PROPORTIONS :    1, 0.22       2, 0.78
   561 3036-16-350     16    350.0       1755.    
     MULTIPLE LAYERS AND PROPORTIONS :    1, 0.22       2, 0.78
   562 3036-21-335     21    335.0       1722.    
     MULTIPLE LAYERS AND PROPORTIONS :    1, 0.22       2, 0.78
   563 3030-12-247     12    247.0       1770.    
     MULTIPLE LAYERS AND PROPORTIONS :    1, 0.19       2, 0.81
   564 3030-16-350     16    350.0       1757.    
     MULTIPLE LAYERS AND PROPORTIONS :    1, 0.19       2, 0.81
   565 3030-21-346     21    346.0       1725.    
     MULTIPLE LAYERS AND PROPORTIONS :    1, 0.19       2, 0.81
   566 3038-1-337       1    337.0       1816.    
 Observation within a steady-state time step has been moved to the end of the time step.
     MULTIPLE LAYERS AND PROPORTIONS :    1, 0.19       2, 0.77       3, 0.04
   567 3038-6-286       6    286.0       1808.    
     MULTIPLE LAYERS AND PROPORTIONS :    1, 0.19       2, 0.77       3, 0.04
   568 3038-11-338     11    338.0       1796.    
     MULTIPLE LAYERS AND PROPORTIONS :    1, 0.19       2, 0.77       3, 0.04
   569 3038-16-350     16    350.0       1765.    
     MULTIPLE LAYERS AND PROPORTIONS :    1, 0.19       2, 0.77       3, 0.04
   570 3038-21-312     21    312.0       1732.    
     MULTIPLE LAYERS AND PROPORTIONS :    1, 0.19       2, 0.77       3, 0.04
   571 3038-42-349     42    349.0       1678.    
     MULTIPLE LAYERS AND PROPORTIONS :    1, 0.19       2, 0.77       3, 0.04
   572 3035-48-337     48    337.0       1709.    
     MULTIPLE LAYERS AND PROPORTIONS :    2, 0.33       3, 0.67
   573 3035-56-23      56    23.00       1737.    
     MULTIPLE LAYERS AND PROPORTIONS :    2, 0.33       3, 0.67
   574 3035-60-319     60    319.0       1755.    
     MULTIPLE LAYERS AND PROPORTIONS :    2, 0.33       3, 0.67
   575 3035-66-18      66    18.00       1790.    
     MULTIPLE LAYERS AND PROPORTIONS :    2, 0.33       3, 0.67
   576 3035-71-11      71    11.00       1802.    
     MULTIPLE LAYERS AND PROPORTIONS :    2, 0.33       3, 0.67
   577 3035-71-365     71    365.0       1804.    
     MULTIPLE LAYERS AND PROPORTIONS :    2, 0.33       3, 0.67
   578 3007-12-76      12    76.00       1799.    
     MULTIPLE LAYERS AND PROPORTIONS :    1, 0.16       2, 0.76       3, 0.08
   579 3007-48-337     48    337.0       1714.    
     MULTIPLE LAYERS AND PROPORTIONS :    2, 0.93       3, 0.07
   580 3007-56-23      56    23.00       1743.    
     MULTIPLE LAYERS AND PROPORTIONS :    2, 0.93       3, 0.07
   581 3007-61-55      61    55.00       1764.    
   582 3007-66-18      66    18.00       1797.    
   583 3032-10-32      10    32.00       1837.    
     MULTIPLE LAYERS AND PROPORTIONS :    1, 0.10       2, 0.36       3, 0.54
   584 3032-48-337     48    337.0       1721.    
     MULTIPLE LAYERS AND PROPORTIONS :    1, 0.10       2, 0.36       3, 0.54
   585 3032-56-23      56    23.00       1749.    
     MULTIPLE LAYERS AND PROPORTIONS :    1, 0.10       2, 0.36       3, 0.54
   586 3032-61-55      61    55.00       1769.    
     MULTIPLE LAYERS AND PROPORTIONS :    1, 0.10       2, 0.36       3, 0.54
   587 3032-66-27      66    27.00       1792.    
     MULTIPLE LAYERS AND PROPORTIONS :    1, 0.10       2, 0.36       3, 0.54
   588 3006-56-23      56    23.00       1745.    
   589 3006-61-55      61    55.00       1767.    
   590 3006-66-18      66    18.00       1801.    
   591 3005-10-60      10    60.00       1836.    
   592 3005-48-337     48    337.0       1770.    
   593 3005-56-23      56    23.00       1795.    
   594 3005-61-55      61    55.00       1805.    
   595 3005-66-18      66    18.00       1812.    
   596 3002-56-23      56    23.00       1794.    
   597 3002-61-55      61    55.00       1805.    
   598 3002-66-19      66    19.00       1810.    
   599 3182-48-337     48    337.0       1674.    
   600 3182-56-19      56    19.00       1692.    
   601 3182-61-60      61    60.00       1708.    
   602 3182-66-27      66    27.00       1739.    
   603 3155-8-1         8   1.0000       1775.    
   604 3155-48-337     48    337.0       1676.    
   605 3155-56-19      56    19.00       1717.    
   606 3155-66-24      66    24.00       1748.    
   607 2695-43-60      43    60.00       1677.    
   608 2695-55-354     55    354.0       1712.    
   609 2695-61-7       61    7.000       1726.    
   610 2695-65-361     65    361.0       1770.    
   611 2695-71-5       71    5.000       1782.    
   612 2695-71-365     71    365.0       1784.    
   613 3037-48-364     48    364.0       1774.    
   614 3009-56-25      56    25.00       1908.    
   615 3009-61-55      61    55.00       1906.    
   616 3001-56-25      56    25.00       1910.    
   617 3001-61-55      61    55.00       1908.    
   618 3004-17-1       17   1.0000       2018.    
   619 3004-22-1       22   1.0000       2015.    
   620 3004-27-32      27    32.00       2001.    
   621 3004-37-36      37    36.00       2005.    
   622 3004-66-24      66    24.00       2001.    
   623 3004-71-57      71    57.00       1994.    
   624 3010-48-334     48    334.0       2113.    
   625 3010-56-27      56    27.00       2109.    
   626 3039-42-364     42    364.0       2228.    
   627 3039-48-335     48    335.0       2245.    
   628 3039-56-25      56    25.00       2227.    
   629 3019-31-297     31    297.0       2244.    
   630 2997-36-32      36    32.00       2229.    
   631 2997-43-41      43    41.00       2230.    
   632 2997-48-334     48    334.0       2229.    
   633 3012-31-339     31    339.0       2316.    
   634 3016-8-222       8    222.0       2284.    
   635 3016-11-53      11    53.00       2300.    
   636 3014-42-365     42    365.0       2297.    
   637 3014-48-334     48    334.0       2299.    
   638 3014-56-24      56    24.00       2299.    
   639 3014-61-59      61    59.00       2298.    
   640 3014-66-25      66    25.00       2291.    
   641 3014-71-54      71    54.00       2278.    
   642 3013-43-6       43    6.000       2316.    
   643 3013-48-335     48    335.0       2319.    
   644 3013-56-26      56    26.00       2319.    
   645 3013-66-28      66    28.00       2310.    
   646 3041-66-33      66    33.00       2468.    
   647 3041-71-61      71    61.00       2459.    
   648 3055-11-56      11    56.00       2467.    
   649 3055-43-6       43    6.000       2457.    
   650 3055-48-335     48    335.0       2469.    
   651 3055-56-19      56    19.00       2469.    
   652 3251-48-334     48    334.0       3019.    
   653 3246-56-26      56    26.00       2986.    
   654 3248-16-116     16    116.0       2955.    
   655 3248-21-116     21    116.0       2975.    
   656 3248-26-125     26    125.0       2959.    
   657 3248-31-111     31    111.0       2961.    
   658 3248-37-36      37    36.00       2957.    
   659 3248-43-81      43    81.00       2972.    
   660 3248-48-334     48    334.0       2988.    
   661 3248-56-26      56    26.00       2987.    
   662 3248-71-61      71    61.00       2965.    
   663 3242-56-26      56    26.00       2985.    
     MULTIPLE LAYERS AND PROPORTIONS :    2, 0.82       3, 0.18
   664 3241-61-61      61    61.00       2998.    
   665 3241-66-18      66    18.00       2981.    
   666 3241-71-61      71    61.00       3005.    
   667 3235-71-64      71    64.00       3012.    
   668 3221-66-33      66    33.00       2925.    
   669 3262-42-335     42    335.0       2939.    
   670 3262-49-8       49    8.000       2944.    
   671 3262-55-342     55    342.0       2943.    
   672 3262-61-35      61    35.00       2939.    
   673 3262-66-33      66    33.00       2931.    
   674 3262-71-323     71    323.0       2925.    
   675 3256-27-125     27    125.0       2931.    
     MULTIPLE LAYERS AND PROPORTIONS :    2, 0.47       3, 0.53
   676 3256-37-36      37    36.00       2916.    
     MULTIPLE LAYERS AND PROPORTIONS :    2, 0.47       3, 0.53
   677 3256-48-356     48    356.0       2938.    
     MULTIPLE LAYERS AND PROPORTIONS :    2, 0.47       3, 0.53
   678 3256-55-342     55    342.0       2934.    
     MULTIPLE LAYERS AND PROPORTIONS :    2, 0.47       3, 0.53
   679 3256-66-33      66    33.00       2926.    
     MULTIPLE LAYERS AND PROPORTIONS :    2, 0.47       3, 0.53
   680 3256-71-323     71    323.0       2917.    
     MULTIPLE LAYERS AND PROPORTIONS :    2, 0.47       3, 0.53
   681 3252-43-81      43    81.00       2932.    
   682 3252-48-336     48    336.0       2934.    
   683 3252-56-27      56    27.00       2930.    
   684 3252-60-323     60    323.0       2929.    
   685 3252-65-299     65    299.0       2923.    
   686 3252-71-365     71    365.0       2915.    
   687 3253-55-342     55    342.0       2930.    
   688 3253-60-335     60    335.0       2927.    
   689 3253-66-34      66    34.00       2925.    
   690 3253-71-323     71    323.0       2917.    
   691 3263-16-299     16    299.0       2905.    
     MULTIPLE LAYERS AND PROPORTIONS :    2, 0.70       3, 0.30
   692 3263-26-127     26    127.0       2904.    
     MULTIPLE LAYERS AND PROPORTIONS :    2, 0.70       3, 0.30
   693 3263-43-60      43    60.00       2902.    
     MULTIPLE LAYERS AND PROPORTIONS :    2, 0.70       3, 0.30
   694 3263-48-356     48    356.0       2911.    
     MULTIPLE LAYERS AND PROPORTIONS :    2, 0.70       3, 0.30
   695 3263-56-24      56    24.00       2900.    
     MULTIPLE LAYERS AND PROPORTIONS :    2, 0.70       3, 0.30
   696 3263-66-33      66    33.00       2901.    
     MULTIPLE LAYERS AND PROPORTIONS :    2, 0.70       3, 0.30
   697 3263-71-365     71    365.0       2895.    
     MULTIPLE LAYERS AND PROPORTIONS :    2, 0.70       3, 0.30
   698 3224-56-27      56    27.00       2930.    
   699 3209-33-314     33    314.0       2882.    
   700 3210-43-81      43    81.00       2884.    
     MULTIPLE LAYERS AND PROPORTIONS :    2, 0.11       3, 0.89
   701 3210-48-336     48    336.0       2887.    
     MULTIPLE LAYERS AND PROPORTIONS :    2, 0.11       3, 0.89
   702 3210-56-26      56    26.00       2894.    
     MULTIPLE LAYERS AND PROPORTIONS :    2, 0.11       3, 0.89
   703 3195-33-32      33    32.00       2815.    
     MULTIPLE LAYERS AND PROPORTIONS :    2, 0.29       3, 0.71
   704 3180-34-152     34    152.0       2820.    
     MULTIPLE LAYERS AND PROPORTIONS :    2, 0.08       3, 0.92
   705 3184-66-28      66    28.00       2857.    
   706 3184-71-62      71    62.00       2852.    
   707 3186-66-28      66    28.00       2856.    
   708 3186-71-60      71    60.00       2852.    
   709 3183-66-31      66    31.00       2872.    
   710 3207-43-7       43    7.000       2948.    
   711 3207-48-334     48    334.0       2964.    
   712 3207-56-26      56    26.00       2976.    
   713 3190-43-7       43    7.000       2890.    
   714 3190-48-336     48    336.0       2901.    
   715 3190-56-25      56    25.00       2904.    
   716 3194-71-62      71    62.00       2908.    
   717 3192-66-34      66    34.00       2931.    
   718 3192-71-60      71    60.00       2929.    
   719 3187-43-7       43    7.000       2909.    
     MULTIPLE LAYERS AND PROPORTIONS :    2, 0.48       3, 0.52
   720 3187-48-334     48    334.0       2917.    
     MULTIPLE LAYERS AND PROPORTIONS :    2, 0.48       3, 0.52
   721 3203-71-62      71    62.00       2945.    
   722 3165-71-62      71    62.00       2841.    
   723 3148-43-7       43    7.000       2842.    
     MULTIPLE LAYERS AND PROPORTIONS :    2, 0.20       3, 0.80
   724 3157-71-62      71    62.00       2841.    
   725 3152-71-62      71    62.00       2846.    
   726 3169-43-8       43    8.000       2834.    
   727 3169-48-336     48    336.0       2821.    
   728 3169-66-34      66    34.00       2822.    
   729 3169-71-61      71    61.00       2805.    
   730 3168-43-7       43    7.000       2830.    
     MULTIPLE LAYERS AND PROPORTIONS :    2, 0.70       3, 0.30
   731 3168-56-26      56    26.00       2830.    
     MULTIPLE LAYERS AND PROPORTIONS :    2, 0.70       3, 0.30
   732 3168-66-34      66    34.00       2829.    
     MULTIPLE LAYERS AND PROPORTIONS :    2, 0.70       3, 0.30
   733 3156-27-289     27    289.0       2792.    
     MULTIPLE LAYERS AND PROPORTIONS :    2, 0.40       3, 0.60
   734 3144-43-7       43    7.000       2755.    
     MULTIPLE LAYERS AND PROPORTIONS :    2, 0.26       3, 0.74
   735 3144-56-25      56    25.00       2765.    
     MULTIPLE LAYERS AND PROPORTIONS :    2, 0.26       3, 0.74
   736 3144-66-34      66    34.00       2744.    
     MULTIPLE LAYERS AND PROPORTIONS :    2, 0.26       3, 0.74
   737 3144-71-60      71    60.00       2734.    
     MULTIPLE LAYERS AND PROPORTIONS :    2, 0.26       3, 0.74
   738 3110-43-5       43    5.000       2722.    
   739 3110-48-335     48    335.0       2730.    
   740 3136-43-7       43    7.000       2851.    
     MULTIPLE LAYERS AND PROPORTIONS :    2, 0.27       3, 0.73
   741 3136-48-334     48    334.0       2861.    
     MULTIPLE LAYERS AND PROPORTIONS :    2, 0.27       3, 0.73
   742 3136-56-26      56    26.00       2868.    
     MULTIPLE LAYERS AND PROPORTIONS :    2, 0.27       3, 0.73
   743 3136-66-35      66    35.00       2846.    
     MULTIPLE LAYERS AND PROPORTIONS :    2, 0.27       3, 0.73
   744 3136-71-61      71    61.00       2827.    
     MULTIPLE LAYERS AND PROPORTIONS :    2, 0.27       3, 0.73
   745 3093-5-82        5    82.00       2709.    
   746 3093-6-97        6    97.00       2709.    
   747 3093-16-133     16    133.0       2692.    
   748 3093-26-124     26    124.0       2688.    
   749 3093-37-37      37    37.00       2684.    
   750 3093-43-7       43    7.000       2727.    
   751 3094-48-337     48    337.0       2811.    
     MULTIPLE LAYERS AND PROPORTIONS :    2, 0.48       3, 0.52
   752 3094-66-33      66    33.00       2785.    
     MULTIPLE LAYERS AND PROPORTIONS :    2, 0.48       3, 0.52
   753 3094-71-61      71    61.00       2774.    
     MULTIPLE LAYERS AND PROPORTIONS :    2, 0.48       3, 0.52
   754 3057-48-337     48    337.0       2564.    
   755 3057-56-25      56    25.00       2558.    
   756 3011-48-337     48    337.0       2533.    
     MULTIPLE LAYERS AND PROPORTIONS :    2, 0.55       3, 0.45
   757 3011-66-33      66    33.00       2460.    
     MULTIPLE LAYERS AND PROPORTIONS :    2, 0.55       3, 0.45
   758 3011-71-61      71    61.00       2447.    
     MULTIPLE LAYERS AND PROPORTIONS :    2, 0.55       3, 0.45
   759 3026-48-337     48    337.0       2520.    
     MULTIPLE LAYERS AND PROPORTIONS :    2, 0.63       3, 0.37
   760 3026-56-25      56    25.00       2554.    
     MULTIPLE LAYERS AND PROPORTIONS :    2, 0.63       3, 0.37
   761 2999-16-361     16    361.0       2530.    
     MULTIPLE LAYERS AND PROPORTIONS :    2, 0.29       3, 0.71
   762 2999-22-31      22    31.00       2533.    
     MULTIPLE LAYERS AND PROPORTIONS :    2, 0.29       3, 0.71
   763 2999-27-11      27    11.00       2522.    
     MULTIPLE LAYERS AND PROPORTIONS :    2, 0.29       3, 0.71
   764 2999-31-351     31    351.0       2526.    
     MULTIPLE LAYERS AND PROPORTIONS :    2, 0.29       3, 0.71
   765 2999-37-343     37    343.0       2520.    
     MULTIPLE LAYERS AND PROPORTIONS :    2, 0.29       3, 0.71
   766 2999-56-25      56    25.00       2568.    
     MULTIPLE LAYERS AND PROPORTIONS :    2, 0.29       3, 0.71
   767 2999-66-33      66    33.00       2500.    
     MULTIPLE LAYERS AND PROPORTIONS :    2, 0.29       3, 0.71
   768 2999-71-61      71    61.00       2475.    
     MULTIPLE LAYERS AND PROPORTIONS :    2, 0.29       3, 0.71
   769 2994-43-5       43    5.000       2561.    
   770 2994-56-25      56    25.00       2576.    
   771 3029-48-336     48    336.0       2649.    
   772 3029-56-26      56    26.00       2651.    
   773 3029-66-33      66    33.00       2616.    
   774 3008-48-336     48    336.0       2686.    
   775 3008-56-26      56    26.00       2693.    
   776 2963-1-107       1    107.0       1799.    
 Observation within a steady-state time step has been moved to the end of the time step.
   777 2948-17-4       17    4.000       1766.    
   778 2982-48-348     48    348.0       1665.    
   779 2982-55-354     55    354.0       1675.    
   780 2982-61-7       61    7.000       1679.    
   781 2982-66-55      66    55.00       1695.    
   782 2982-71-355     71    355.0       1716.    
   783 2968-71-365     71    365.0       1752.    
   784 2951-42-351     42    351.0       1676.    
   785 2951-48-348     48    348.0       1682.    
   786 2951-55-354     55    354.0       1690.    
   787 2951-61-5       61    5.000       1696.    
   788 2951-66-20      66    20.00       1714.    
   789 2951-71-355     71    355.0       1736.    
   790 2950-12-335     12    335.0       1795.    
   791 2950-55-354     55    354.0       1695.    
   792 2945-1-107       1    107.0       1802.    
 Observation within a steady-state time step has been moved to the end of the time step.
   793 2945-7-3         7    3.000       1799.    
   794 2945-10-320     10    320.0       1798.    
   795 2902-42-351     42    351.0       1680.    
   796 2902-48-348     48    348.0       1690.    
   797 2902-55-354     55    354.0       1697.    
   798 2902-61-5       61    5.000       1703.    
   799 2902-66-20      66    20.00       1715.    
   800 2902-71-355     71    355.0       1732.    
   801 2906-12-332     12    332.0       1816.    
   802 2906-17-4       17    4.000       1787.    
     MULTIPLE LAYERS AND PROPORTIONS :    2, 0.77       3, 0.23
   803 2906-22-34      22    34.00       1763.    
     MULTIPLE LAYERS AND PROPORTIONS :    2, 0.77       3, 0.23
   804 2906-32-85      32    85.00       1709.    
   805 2906-37-33      37    33.00       1693.    
     MULTIPLE LAYERS AND PROPORTIONS :    2, 0.77       3, 0.23
   806 2906-48-365     48    365.0       1698.    
     MULTIPLE LAYERS AND PROPORTIONS :    2, 0.77       3, 0.23
   807 2906-55-354     55    354.0       1704.    
     MULTIPLE LAYERS AND PROPORTIONS :    2, 0.77       3, 0.23
   808 2906-61-5       61    5.000       1712.    
     MULTIPLE LAYERS AND PROPORTIONS :    2, 0.77       3, 0.23
   809 2906-66-20      66    20.00       1724.    
     MULTIPLE LAYERS AND PROPORTIONS :    2, 0.77       3, 0.23
   810 2906-71-365     71    365.0       1744.    
     MULTIPLE LAYERS AND PROPORTIONS :    2, 0.77       3, 0.23
   811 2922-16-313     16    313.0       1748.    
   812 2922-22-34      22    34.00       1736.    
   813 2922-27-13      27    13.00       1727.    
   814 2559-17-6       17    6.000       1766.    
     MULTIPLE LAYERS AND PROPORTIONS :    1, 0.19       2, 0.18       3, 0.63
   815 2559-42-351     42    351.0       1729.    
     MULTIPLE LAYERS AND PROPORTIONS :    2, 0.37       3, 0.63
   816 2559-48-348     48    348.0       1727.    
     MULTIPLE LAYERS AND PROPORTIONS :    2, 0.37       3, 0.63
   817 2559-56-3       56    3.000       1747.    
     MULTIPLE LAYERS AND PROPORTIONS :    2, 0.37       3, 0.63
   818 2559-66-20      66    20.00       1779.    
     MULTIPLE LAYERS AND PROPORTIONS :    1, 0.19       2, 0.18       3, 0.63
   819 2559-71-365     71    365.0       1791.    
     MULTIPLE LAYERS AND PROPORTIONS :    1, 0.19       2, 0.18       3, 0.63
   820 2920-1-109       1    109.0       1851.    
 Observation within a steady-state time step has been moved to the end of the time step.
   821 2901-42-351     42    351.0       1703.    
   822 2901-55-355     55    355.0       1725.    
   823 2901-61-5       61    5.000       1741.    
   824 2901-66-20      66    20.00       1777.    
   825 2901-71-365     71    365.0       1790.    
   826 2905-17-6       17    6.000       1766.    
     MULTIPLE LAYERS AND PROPORTIONS :    1, 0.55       2, 0.45
   827 2905-22-34      22    34.00       1752.    
     MULTIPLE LAYERS AND PROPORTIONS :    1, 0.55       2, 0.45
   828 2905-42-351     42    351.0       1705.    
   829 2905-71-50      71    50.00       1791.    
     MULTIPLE LAYERS AND PROPORTIONS :    1, 0.55       2, 0.45
   830 2905-71-365     71    365.0       1792.    
     MULTIPLE LAYERS AND PROPORTIONS :    1, 0.55       2, 0.45
   831 2907-42-351     42    351.0       1686.    
   832 2907-48-348     48    348.0       1710.    
   833 2907-55-355     55    355.0       1725.    
   834 2907-61-5       61    5.000       1744.    
   835 2907-66-20      66    20.00       1779.    
   836 2907-71-365     71    365.0       1793.    
   837 2900-17-6       17    6.000       1758.    
     MULTIPLE LAYERS AND PROPORTIONS :    1, 0.40       2, 0.60
   838 2900-56-20      56    20.00       1729.    
   839 2900-66-26      66    26.00       1782.    
   840 2874-3-290       3    290.0       1828.    
   841 2838-3-1         3   1.0000       1817.    
   842 2809-16-354     16    354.0       1803.    
     MULTIPLE LAYERS AND PROPORTIONS :    2, 0.14       3, 0.86
   843 2788-1-105       1    105.0       1834.    
 Observation within a steady-state time step has been moved to the end of the time step.
   844 2788-7-3         7    3.000       1834.    
   845 2788-11-311     11    311.0       1833.    
   846 2780-12-173     12    173.0       1827.    
   847 2780-16-354     16    354.0       1802.    
   848 2780-37-33      37    33.00       1689.    
   849 2779-16-354     16    354.0       1809.    
     MULTIPLE LAYERS AND PROPORTIONS :    2, 0.37       3, 0.63
   850 2779-22-34      22    34.00       1782.    
     MULTIPLE LAYERS AND PROPORTIONS :    2, 0.37       3, 0.63
   851 2777-16-354     16    354.0       1824.    
   852 2787-16-335     16    335.0       1815.    
     MULTIPLE LAYERS AND PROPORTIONS :    1, 0.66       2, 0.34
   853 2787-22-34      22    34.00       1802.    
   854 2787-34-351     34    351.0       1762.    
   855 2787-56-25      56    25.00       1747.    
   856 2787-61-52      61    52.00       1751.    
   857 2787-66-25      66    25.00       1760.    
   858 2783-17-6       17    6.000       1822.    
     MULTIPLE LAYERS AND PROPORTIONS :    1, 0.41       2, 0.59
   859 2783-56-25      56    25.00       1749.    
   860 2783-66-20      66    20.00       1780.    
     MULTIPLE LAYERS AND PROPORTIONS :    1, 0.41       2, 0.59
   861 2783-71-365     71    365.0       1781.    
     MULTIPLE LAYERS AND PROPORTIONS :    1, 0.41       2, 0.59
   862 2790-66-20      66    20.00       1764.    
     MULTIPLE LAYERS AND PROPORTIONS :    2, 0.52       3, 0.48
   863 2790-71-365     71    365.0       1774.    
     MULTIPLE LAYERS AND PROPORTIONS :    2, 0.52       3, 0.48
   864 2745-16-354     16    354.0       1825.    
     MULTIPLE LAYERS AND PROPORTIONS :    1, 0.42       2, 0.58
   865 2745-66-20      66    20.00       1767.    
     MULTIPLE LAYERS AND PROPORTIONS :    1, 0.42       2, 0.58
   866 2745-71-365     71    365.0       1771.    
     MULTIPLE LAYERS AND PROPORTIONS :    1, 0.42       2, 0.58
   867 2775-1-86        1    86.00       1838.    
 Observation within a steady-state time step has been moved to the end of the time step.
   868 2775-7-68        7    68.00       1836.    
   869 2731-48-348     48    348.0       1740.    
     MULTIPLE LAYERS AND PROPORTIONS :    2, 0.87       3, 0.13
   870 2731-55-354     55    354.0       1732.    
     MULTIPLE LAYERS AND PROPORTIONS :    2, 0.87       3, 0.13
   871 2731-61-5       61    5.000       1751.    
     MULTIPLE LAYERS AND PROPORTIONS :    2, 0.87       3, 0.13
   872 2731-66-20      66    20.00       1763.    
     MULTIPLE LAYERS AND PROPORTIONS :    2, 0.87       3, 0.13
   873 2731-71-365     71    365.0       1772.    
     MULTIPLE LAYERS AND PROPORTIONS :    2, 0.87       3, 0.13
   874 2771-22-21      22    21.00       1796.    
   875 2718-17-6       17    6.000       1829.    
     MULTIPLE LAYERS AND PROPORTIONS :    2, 0.69       3, 0.31
   876 2718-27-13      27    13.00       1784.    
     MULTIPLE LAYERS AND PROPORTIONS :    2, 0.69       3, 0.31
   877 2769-56-26      56    26.00       1705.    
   878 2769-61-55      61    55.00       1708.    
   879 2769-66-26      66    26.00       1715.    
   880 2758-7-344       7    344.0       1835.    
   881 2675-48-348     48    348.0       1693.    
   882 2675-61-4       61    4.000       1704.    
   883 2675-66-20      66    20.00       1711.    
   884 2675-71-365     71    365.0       1726.    
   885 2637-42-351     42    351.0       1723.    
   886 2637-48-349     48    349.0       1721.    
   887 2637-55-355     55    355.0       1721.    
   888 2637-61-4       61    4.000       1722.    
   889 2637-66-51      66    51.00       1728.    
   890 2637-71-365     71    365.0       1741.    
   891 2641-16-355     16    355.0       1822.    
     MULTIPLE LAYERS AND PROPORTIONS :    2, 0.07       3, 0.93
   892 2641-56-25      56    25.00       1716.    
     MULTIPLE LAYERS AND PROPORTIONS :    2, 0.07       3, 0.93
   893 2641-61-53      61    53.00       1720.    
     MULTIPLE LAYERS AND PROPORTIONS :    2, 0.07       3, 0.93
   894 2641-66-26      66    26.00       1717.    
     MULTIPLE LAYERS AND PROPORTIONS :    2, 0.07       3, 0.93
   895 2640-42-351     42    351.0       1705.    
   896 2640-48-348     48    348.0       1712.    
   897 2640-55-355     55    355.0       1717.    
   898 2640-61-4       61    4.000       1721.    
   899 2640-66-20      66    20.00       1732.    
   900 2640-71-4       71    4.000       1743.    
   901 2640-71-365     71    365.0       1745.    
   902 2636-42-351     42    351.0       1705.    
   903 2636-48-348     48    348.0       1710.    
   904 2636-55-355     55    355.0       1704.    
   905 2636-61-4       61    4.000       1718.    
   906 2636-66-20      66    20.00       1727.    
   907 2636-71-5       71    5.000       1738.    
   908 2636-71-365     71    365.0       1741.    
   909 2639-12-178     12    178.0       1856.    
     MULTIPLE LAYERS AND PROPORTIONS :    2, 0.39       3, 0.61
   910 2639-16-354     16    354.0       1839.    
     MULTIPLE LAYERS AND PROPORTIONS :    2, 0.39       3, 0.61
   911 2639-42-351     42    351.0       1715.    
     MULTIPLE LAYERS AND PROPORTIONS :    2, 0.39       3, 0.61
   912 2639-48-348     48    348.0       1725.    
     MULTIPLE LAYERS AND PROPORTIONS :    2, 0.39       3, 0.61
   913 2639-71-50      71    50.00       1753.    
     MULTIPLE LAYERS AND PROPORTIONS :    2, 0.39       3, 0.61
   914 2639-71-365     71    365.0       1754.    
     MULTIPLE LAYERS AND PROPORTIONS :    2, 0.39       3, 0.61
   915 2654-56-25      56    25.00       1734.    
   916 2654-61-52      61    52.00       1736.    
   917 2978-1-364       1    364.0       1871.    
 Observation within a steady-state time step has been moved to the end of the time step.
   918 2978-4-93        4    93.00       1868.    
   919 2964-48-300     48    300.0       1788.    
   920 2964-55-321     55    321.0       1815.    
   921 2964-60-313     60    313.0       1823.    
   922 2964-65-364     65    364.0       1827.    
   923 2964-71-349     71    349.0       1835.    
   924 2965-71-350     71    350.0       1956.    
   925 2985-17-5       17    5.000       1729.    
   926 2985-56-24      56    24.00       1725.    
   927 2985-61-56      61    56.00       1753.    
   928 2985-66-18      66    18.00       1803.    
   929 2913-56-23      56    23.00       1741.    
   930 2921-1-86        1    86.00       1806.    
 Observation within a steady-state time step has been moved to the end of the time step.
   931 2921-7-3         7    3.000       1801.    
   932 2921-10-320     10    320.0       1794.    
   933 2921-12-361     12    361.0       1787.    
   934 2938-56-26      56    26.00       1732.    
   935 2938-61-59      61    59.00       1755.    
   936 2938-66-20      66    20.00       1805.    
   937 2935-22-34      22    34.00       1724.    
   938 2935-27-20      27    20.00       1702.    
   939 2935-56-24      56    24.00       1723.    
   940 2935-61-56      61    56.00       1746.    
   941 2935-66-19      66    19.00       1797.    
   942 2943-48-275     48    275.0       1710.    
   943 2944-48-275     48    275.0       1707.    
   944 2936-56-24      56    24.00       1826.    
     MULTIPLE LAYERS AND PROPORTIONS :    2, 0.32       3, 0.68
   945 2936-61-55      61    55.00       1834.    
     MULTIPLE LAYERS AND PROPORTIONS :    2, 0.32       3, 0.68
   946 2937-17-5       17    5.000       1815.    
     MULTIPLE LAYERS AND PROPORTIONS :    2, 0.86       3, 0.14
   947 2937-22-34      22    34.00       1798.    
     MULTIPLE LAYERS AND PROPORTIONS :    2, 0.86       3, 0.14
   948 2937-32-85      32    85.00       1767.    
     MULTIPLE LAYERS AND PROPORTIONS :    2, 0.86       3, 0.14
   949 2937-42-349     42    349.0       1749.    
     MULTIPLE LAYERS AND PROPORTIONS :    2, 0.86       3, 0.14
   950 2937-48-341     48    341.0       1779.    
     MULTIPLE LAYERS AND PROPORTIONS :    2, 0.86       3, 0.14
   951 2937-56-24      56    24.00       1805.    
     MULTIPLE LAYERS AND PROPORTIONS :    2, 0.86       3, 0.14
   952 2937-65-302     65    302.0       1818.    
     MULTIPLE LAYERS AND PROPORTIONS :    2, 0.86       3, 0.14
   953 2915-12-6       12    6.000       1856.    
     MULTIPLE LAYERS AND PROPORTIONS :    2, 0.74       3, 0.26
   954 2915-17-5       17    5.000       1829.    
     MULTIPLE LAYERS AND PROPORTIONS :    2, 0.74       3, 0.26
   955 2915-56-24      56    24.00       1818.    
     MULTIPLE LAYERS AND PROPORTIONS :    2, 0.74       3, 0.26
   956 2915-61-56      61    56.00       1828.    
     MULTIPLE LAYERS AND PROPORTIONS :    2, 0.74       3, 0.26
   957 2915-66-19      66    19.00       1834.    
     MULTIPLE LAYERS AND PROPORTIONS :    2, 0.74       3, 0.26
   958 2863-48-275     48    275.0       1773.    
   959 2864-48-275     48    275.0       1775.    
   960 2885-17-5       17    5.000       1811.    
   961 2885-56-24      56    24.00       1794.    
   962 2885-61-56      61    56.00       1810.    
   963 2867-17-6       17    6.000       1763.    
   964 2867-21-335     21    335.0       1730.    
   965 2867-56-24      56    24.00       1732.    
   966 2867-61-56      61    56.00       1751.    
   967 2867-66-19      66    19.00       1792.    
   968 2887-56-24      56    24.00       1732.    
     MULTIPLE LAYERS AND PROPORTIONS :    2, 0.86       3, 0.14
   969 2887-66-19      66    19.00       1779.    
     MULTIPLE LAYERS AND PROPORTIONS :    2, 0.86       3, 0.14
   970 2886-17-6       17    6.000       1759.    
   971 2886-56-24      56    24.00       1727.    
   972 2886-61-56      61    56.00       1748.    
   973 2886-66-27      66    27.00       1789.    
   974 2850-1-86        1    86.00       1825.    
 Observation within a steady-state time step has been moved to the end of the time step.
   975 2850-7-4         7    4.000       1820.    
   976 2850-12-361     12    361.0       1812.    
   977 2837-12-284     12    284.0       1798.    
     MULTIPLE LAYERS AND PROPORTIONS :    1, 0.18       2, 0.82
   978 2837-16-354     16    354.0       1759.    
   979 2837-22-34      22    34.00       1730.    
   980 2837-32-85      32    85.00       1685.    
   981 2837-37-34      37    34.00       1676.    
   982 2837-42-349     42    349.0       1690.    
   983 2837-48-341     48    341.0       1709.    
   984 2837-56-24      56    24.00       1730.    
   985 2837-60-319     60    319.0       1750.    
   986 2837-65-298     65    298.0       1789.    
     MULTIPLE LAYERS AND PROPORTIONS :    1, 0.18       2, 0.82
   987 2837-71-11      71    11.00       1802.    
     MULTIPLE LAYERS AND PROPORTIONS :    1, 0.18       2, 0.82
   988 2837-71-365     71    365.0       1807.    
     MULTIPLE LAYERS AND PROPORTIONS :    1, 0.18       2, 0.82
   989 2818-17-6       17    6.000       1760.    
   990 2818-56-24      56    24.00       1738.    
   991 2818-61-52      61    52.00       1757.    
   992 2818-66-25      66    25.00       1793.    
   993 2800-48-348     48    348.0       1708.    
   994 2800-55-355     55    355.0       1729.    
   995 2800-61-7       61    7.000       1747.    
   996 2800-65-341     65    341.0       1780.    
   997 2800-71-50      71    50.00       1796.    
   998 2800-71-365     71    365.0       1797.    
   999 2786-56-24      56    24.00       1730.    
  1000 2786-61-52      61    52.00       1745.    
  1001 2786-66-25      66    25.00       1781.    
  1002 2770-1-86        1    86.00       1835.    
 Observation within a steady-state time step has been moved to the end of the time step.
  1003 2770-7-4         7    4.000       1831.    
  1004 2770-12-361     12    361.0       1826.    
  1005 2744-56-24      56    24.00       1736.    
  1006 2740-56-24      56    24.00       1735.    
  1007 2741-17-6       17    6.000       1783.    
  1008 2694-1-86        1    86.00       1871.    
 Observation within a steady-state time step has been moved to the end of the time step.
  1009 2694-5-67        5    67.00       1870.    
  1010 2643-2-60        2    60.00       1888.    
  1011 2643-6-284       6    284.0       1886.    
  1012 2643-11-275     11    275.0       1876.    
  1013 2933-56-23      56    23.00       1728.    
  1014 2851-16-354     16    354.0       1770.    
  1015 2851-65-341     65    341.0       1790.    
  1016 2851-71-50      71    50.00       1799.    
  1017 2851-71-365     71    365.0       1799.    
  1018 2854-65-341     65    341.0       1784.    
  1019 2854-71-50      71    50.00       1797.    
  1020 2854-71-365     71    365.0       1798.    
  1021 2796-61-52      61    52.00       1752.    
  1022 2796-66-33      66    33.00       1772.    
  1023 2712-42-351     42    351.0       1745.    
  1024 2712-48-348     48    348.0       1750.    
  1025 2712-56-27      56    27.00       1756.    
  1026 2712-61-7       61    7.000       1758.    
  1027 2712-66-55      66    55.00       1770.    
  1028 2712-71-365     71    365.0       1778.    
  1029 2709-55-355     55    355.0       1767.    
  1030 2709-61-7       61    7.000       1781.    
  1031 2709-65-341     65    341.0       1781.    
  1032 2709-71-365     71    365.0       1785.    
  1033 2702-42-351     42    351.0       1782.    
  1034 2702-48-348     48    348.0       1773.    
  1035 2702-56-27      56    27.00       1770.    
  1036 2702-61-7       61    7.000       1770.    
  1037 2702-65-341     65    341.0       1777.    
  1038 2702-71-365     71    365.0       1790.    
  1039 2711-39-335     39    335.0       1752.    
  1040 2711-56-26      56    26.00       1755.    
  1041 2711-61-7       61    7.000       1757.    
  1042 2711-65-341     65    341.0       1768.    
  1043 2711-71-365     71    365.0       1779.    
  1044 2713-42-351     42    351.0       1746.    
  1045 2713-56-26      56    26.00       1755.    
  1046 2713-61-7       61    7.000       1756.    
  1047 2713-65-341     65    341.0       1770.    
  1048 2713-71-365     71    365.0       1780.    
  1049 2682-56-23      56    23.00       1758.    
  1050 2682-61-53      61    53.00       1756.    
  1051 2682-66-28      66    28.00       1763.    
  1052 2866-12-332     12    332.0       1810.    
  1053 2866-17-6       17    6.000       1764.    
  1054 2998-43-6       43    6.000       2076.    
  1055 3416-56-26      56    26.00       1932.    
  1056 3416-61-55      61    55.00       1926.    
  1057 3416-66-19      66    19.00       1911.    
  1058 2986-8-305       8    305.0       1907.    
  1059 2960-1-365       1    365.0       1941.    
 Observation within a steady-state time step has been moved to the end of the time step.
  1060 2961-56-25      56    25.00       1958.    
     MULTIPLE LAYERS AND PROPORTIONS :    1, 0.29       2, 0.71
  1061 2961-61-59      61    59.00       1947.    
     MULTIPLE LAYERS AND PROPORTIONS :    1, 0.29       2, 0.71
  1062 2961-66-19      66    19.00       1917.    
     MULTIPLE LAYERS AND PROPORTIONS :    1, 0.29       2, 0.71
  1063 2957-56-25      56    25.00       1965.    
     MULTIPLE LAYERS AND PROPORTIONS :    1, 0.31       2, 0.69
  1064 2957-61-59      61    59.00       1978.    
     MULTIPLE LAYERS AND PROPORTIONS :    1, 0.31       2, 0.69
  1065 2988-1-51        1    51.00       1886.    
 Observation within a steady-state time step has been moved to the end of the time step.
  1066 2984-8-213       8    213.0       1873.    
  1067 2971-7-60        7    60.00       1916.    
  1068 2969-56-25      56    25.00       1917.    
     MULTIPLE LAYERS AND PROPORTIONS :    1, 0.68       2, 0.32
  1069 2969-61-55      61    55.00       1914.    
     MULTIPLE LAYERS AND PROPORTIONS :    1, 0.68       2, 0.32
  1070 2969-66-19      66    19.00       1855.    
     MULTIPLE LAYERS AND PROPORTIONS :    1, 0.68       2, 0.32
  1071 2976-56-25      56    25.00       1862.    
  1072 2976-61-55      61    55.00       1862.    
  1073 2976-66-19      66    19.00       1846.    
  1074 2972-56-25      56    25.00       1858.    
  1075 2972-66-19      66    19.00       1844.    
  1076 2919-21-335     21    335.0       1807.    
  1077 2946-56-25      56    25.00       1956.    
     MULTIPLE LAYERS AND PROPORTIONS :    2, 0.81       3, 0.19
  1078 2946-66-19      66    19.00       1917.    
     MULTIPLE LAYERS AND PROPORTIONS :    2, 0.81       3, 0.19
  1079 2927-22-17      22    17.00       1953.    
     MULTIPLE LAYERS AND PROPORTIONS :    2, 0.83       3, 0.17
  1080 2927-27-32      27    32.00       1950.    
     MULTIPLE LAYERS AND PROPORTIONS :    2, 0.83       3, 0.17
  1081 2955-8-276       8    276.0       1884.    
     MULTIPLE LAYERS AND PROPORTIONS :    1, 0.50       2, 0.50
  1082 2955-12-40      12    40.00       1882.    
     MULTIPLE LAYERS AND PROPORTIONS :    1, 0.50       2, 0.50
  1083 2955-17-1       17   1.0000       1870.    
     MULTIPLE LAYERS AND PROPORTIONS :    1, 0.50       2, 0.50
  1084 2955-27-32      27    32.00       1849.    
     MULTIPLE LAYERS AND PROPORTIONS :    1, 0.50       2, 0.50
  1085 2955-32-12      32    12.00       1857.    
     MULTIPLE LAYERS AND PROPORTIONS :    1, 0.50       2, 0.50
  1086 2955-37-1       37   1.0000       1849.    
     MULTIPLE LAYERS AND PROPORTIONS :    1, 0.50       2, 0.50
  1087 2926-56-26      56    26.00       1971.    
  1088 2926-61-59      61    59.00       1956.    
  1089 2942-1-365       1    365.0       1980.    
 Observation within a steady-state time step has been moved to the end of the time step.
  1090 2916-56-25      56    25.00       1981.    
  1091 2916-61-59      61    59.00       1963.    
  1092 2916-66-20      66    20.00       1933.    
  1093 2941-42-364     42    364.0       2010.    
  1094 2941-48-335     48    335.0       2013.    
  1095 2941-56-23      56    23.00       2015.    
  1096 2941-61-59      61    59.00       2009.    
  1097 2941-66-26      66    26.00       2003.    
  1098 2941-71-54      71    54.00       1985.    
  1099 3185-34-152     34    152.0       2050.    
  1100 2925-42-364     42    364.0       2042.    
  1101 2925-48-335     48    335.0       2045.    
  1102 2925-56-23      56    23.00       2044.    
  1103 2925-66-26      66    26.00       2024.    
  1104 2925-71-54      71    54.00       2018.    
  1105 2954-42-363     42    363.0       2095.    
  1106 2954-56-23      56    23.00       2088.    
  1107 2954-61-59      61    59.00       2078.    
  1108 2954-66-27      66    27.00       2077.    
  1109 2889-42-364     42    364.0       2041.    
  1110 2889-48-336     48    336.0       2056.    
  1111 2889-56-24      56    24.00       2053.    
  1112 2880-22-18      22    18.00       2092.    
  1113 2880-27-32      27    32.00       2088.    
  1114 2880-38-1       38   1.0000       2076.    
  1115 2880-42-363     42    363.0       2076.    
  1116 2893-1-274       1    274.0       2091.    
 Observation within a steady-state time step has been moved to the end of the time step.
  1117 2893-4-279       4    279.0       2087.    
  1118 2893-5-285       5    285.0       2084.    
  1119 2893-12-46      12    46.00       2075.    
  1120 2893-17-19      17    19.00       2069.    
  1121 2893-22-1       22   1.0000       2063.    
  1122 2893-27-32      27    32.00       2062.    
  1123 2893-32-14      32    14.00       2062.    
  1124 2893-38-1       38   1.0000       2055.    
  1125 2896-42-363     42    363.0       2024.    
  1126 2853-42-364     42    364.0       2049.    
  1127 2853-48-336     48    336.0       2053.    
  1128 2853-56-24      56    24.00       2052.    
  1129 2853-61-59      61    59.00       2043.    
  1130 2853-66-27      66    27.00       2025.    
  1131 2853-71-55      71    55.00       2016.    
  1132 2858-42-363     42    363.0       1992.    
  1133 2858-48-336     48    336.0       2008.    
  1134 2858-56-24      56    24.00       2017.    
  1135 2858-61-59      61    59.00       2004.    
  1136 2858-66-27      66    27.00       1969.    
  1137 2858-71-62      71    62.00       1974.    
  1138 2904-2-1         2   1.0000       2009.    
     MULTIPLE LAYERS AND PROPORTIONS :    1, 0.70       2, 0.30
  1139 2892-1-360       1    360.0       2007.    
 Observation within a steady-state time step has been moved to the end of the time step.
     MULTIPLE LAYERS AND PROPORTIONS :    1, 0.59       2, 0.41
  1140 2892-7-65        7    65.00       1995.    
     MULTIPLE LAYERS AND PROPORTIONS :    1, 0.59       2, 0.41
  1141 2892-11-334     11    334.0       1988.    
     MULTIPLE LAYERS AND PROPORTIONS :    1, 0.59       2, 0.41
  1142 2892-16-318     16    318.0       1984.    
     MULTIPLE LAYERS AND PROPORTIONS :    1, 0.59       2, 0.41
  1143 2892-22-34      22    34.00       1982.    
     MULTIPLE LAYERS AND PROPORTIONS :    1, 0.59       2, 0.41
  1144 2892-27-32      27    32.00       1986.    
     MULTIPLE LAYERS AND PROPORTIONS :    1, 0.59       2, 0.41
  1145 2892-31-351     31    351.0       1982.    
     MULTIPLE LAYERS AND PROPORTIONS :    1, 0.59       2, 0.41
  1146 2892-36-50      36    50.00       1996.    
     MULTIPLE LAYERS AND PROPORTIONS :    1, 0.59       2, 0.41
  1147 2909-56-25      56    25.00       1986.    
     MULTIPLE LAYERS AND PROPORTIONS :    1, 0.61       2, 0.39
  1148 2909-61-59      61    59.00       1960.    
     MULTIPLE LAYERS AND PROPORTIONS :    1, 0.61       2, 0.39
  1149 2909-66-19      66    19.00       1938.    
     MULTIPLE LAYERS AND PROPORTIONS :    1, 0.61       2, 0.39
  1150 2911-56-25      56    25.00       1984.    
     MULTIPLE LAYERS AND PROPORTIONS :    1, 0.75       2, 0.25
  1151 2911-61-59      61    59.00       1964.    
     MULTIPLE LAYERS AND PROPORTIONS :    1, 0.75       2, 0.25
  1152 2911-66-19      66    19.00       1937.    
     MULTIPLE LAYERS AND PROPORTIONS :    1, 0.75       2, 0.25
  1153 2884-66-32      66    32.00       1943.    
  1154 2865-8-91        8    91.00       1980.    
  1155 2865-48-342     48    342.0       1982.    
  1156 2848-66-32      66    32.00       1961.    
     MULTIPLE LAYERS AND PROPORTIONS :    1, 0.92       2, 0.08
  1157 2881-48-342     48    342.0       1981.    
  1158 2859-8-121       8    121.0       1997.    
  1159 2871-56-24      56    24.00       1811.    
  1160 2871-61-59      61    59.00       1816.    
  1161 2871-66-27      66    27.00       1823.    
  1162 2811-17-6       17    6.000       1836.    
  1163 2811-22-34      22    34.00       1823.    
  1164 2811-56-24      56    24.00       1832.    
  1165 2811-61-59      61    59.00       1835.    
  1166 2834-48-342     48    342.0       1994.    
  1167 2835-48-342     48    342.0       1994.    
  1168 2835-56-24      56    24.00       2006.    
  1169 2849-42-363     42    363.0       1982.    
  1170 2849-48-336     48    336.0       2003.    
  1171 2828-55-343     55    343.0       2013.    
  1172 2828-61-38      61    38.00       2000.    
  1173 2828-66-55      66    55.00       1961.    
  1174 2828-71-365     71    365.0       1963.    
  1175 2846-8-32        8    32.00       2008.    
     MULTIPLE LAYERS AND PROPORTIONS :    1, 0.44       2, 0.44       3, 0.12
  1176 2847-56-24      56    24.00       2005.    
     MULTIPLE LAYERS AND PROPORTIONS :    1, 0.23       2, 0.40       3, 0.37
  1177 2833-1-283       1    283.0       2018.    
 Observation within a steady-state time step has been moved to the end of the time step.
  1178 2821-43-27      43    27.00       1983.    
     MULTIPLE LAYERS AND PROPORTIONS :    1, 0.56       2, 0.44
  1179 2821-48-334     48    334.0       1999.    
     MULTIPLE LAYERS AND PROPORTIONS :    1, 0.56       2, 0.44
  1180 2821-56-23      56    23.00       2011.    
     MULTIPLE LAYERS AND PROPORTIONS :    1, 0.56       2, 0.44
  1181 2821-61-54      61    54.00       1994.    
     MULTIPLE LAYERS AND PROPORTIONS :    1, 0.56       2, 0.44
  1182 2821-66-13      66    13.00       1953.    
     MULTIPLE LAYERS AND PROPORTIONS :    1, 0.56       2, 0.44
  1183 2817-1-364       1    364.0       2034.    
 Observation within a steady-state time step has been moved to the end of the time step.
  1184 2805-48-334     48    334.0       2001.    
     MULTIPLE LAYERS AND PROPORTIONS :    2, 0.72       3, 0.28
  1185 2805-56-23      56    23.00       2012.    
     MULTIPLE LAYERS AND PROPORTIONS :    2, 0.72       3, 0.28
  1186 2805-61-53      61    53.00       1994.    
     MULTIPLE LAYERS AND PROPORTIONS :    2, 0.72       3, 0.28
  1187 2805-66-20      66    20.00       1954.    
     MULTIPLE LAYERS AND PROPORTIONS :    2, 0.72       3, 0.28
  1188 2798-8-32        8    32.00       2025.    
     MULTIPLE LAYERS AND PROPORTIONS :    1, 0.81       2, 0.19
  1189 2792-48-334     48    334.0       2008.    
  1190 2792-56-23      56    23.00       2019.    
  1191 2792-61-53      61    53.00       2001.    
  1192 2792-66-20      66    20.00       1972.    
  1193 2820-3-338       3    338.0       2046.    
  1194 2820-6-224       6    224.0       2047.    
  1195 2820-7-11        7    11.00       2038.    
  1196 2820-12-46      12    46.00       2037.    
  1197 2820-17-19      17    19.00       2033.    
  1198 2820-22-17      22    17.00       2029.    
  1199 2820-27-32      27    32.00       2035.    
  1200 2820-31-351     31    351.0       2032.    
  1201 2820-37-28      37    28.00       2030.    
  1202 2820-48-334     48    334.0       2020.    
  1203 2820-56-23      56    23.00       2034.    
  1204 2820-60-319     60    319.0       2016.    
  1205 2820-65-299     65    299.0       1978.    
  1206 2820-71-365     71    365.0       1985.    
  1207 2802-48-334     48    334.0       2023.    
  1208 2802-56-23      56    23.00       2039.    
  1209 2802-61-53      61    53.00       2020.    
  1210 2802-66-20      66    20.00       2007.    
  1211 2795-17-19      17    19.00       2040.    
  1212 2795-22-17      22    17.00       2037.    
  1213 2795-32-13      32    13.00       2041.    
  1214 2795-37-345     37    345.0       2028.    
  1215 2795-49-5       49    5.000       2031.    
  1216 2795-55-343     55    343.0       2037.    
  1217 2795-71-365     71    365.0       1992.    
  1218 2722-61-53      61    53.00       2062.    
     MULTIPLE LAYERS AND PROPORTIONS :    1, 0.32       2, 0.68
  1219 2723-61-53      61    53.00       2064.    
  1220 2723-66-20      66    20.00       2037.    
  1221 2715-48-335     48    335.0       2064.    
  1222 2715-56-23      56    23.00       2077.    
  1223 2715-61-53      61    53.00       2059.    
  1224 2715-66-20      66    20.00       2034.    
  1225 2754-1-365       1    365.0       2084.    
 Observation within a steady-state time step has been moved to the end of the time step.
  1226 2764-48-334     48    334.0       2045.    
     MULTIPLE LAYERS AND PROPORTIONS :    1, 0.38       2, 0.62
  1227 2764-56-23      56    23.00       2057.    
     MULTIPLE LAYERS AND PROPORTIONS :    1, 0.38       2, 0.62
  1228 2764-61-53      61    53.00       2040.    
     MULTIPLE LAYERS AND PROPORTIONS :    1, 0.38       2, 0.62
  1229 2764-66-20      66    20.00       2012.    
     MULTIPLE LAYERS AND PROPORTIONS :    1, 0.38       2, 0.62
  1230 2732-48-335     48    335.0       2047.    
  1231 2732-56-20      56    20.00       2062.    
  1232 2739-1-360       1    360.0       2087.    
 Observation within a steady-state time step has been moved to the end of the time step.
  1233 2736-8-32        8    32.00       2077.    
     MULTIPLE LAYERS AND PROPORTIONS :    1, 0.45       2, 0.55
  1234 2724-48-334     48    334.0       2054.    
     MULTIPLE LAYERS AND PROPORTIONS :    1, 0.47       2, 0.53
  1235 2724-56-23      56    23.00       2067.    
     MULTIPLE LAYERS AND PROPORTIONS :    1, 0.47       2, 0.53
  1236 2724-61-53      61    53.00       2053.    
     MULTIPLE LAYERS AND PROPORTIONS :    1, 0.47       2, 0.53
  1237 2724-66-20      66    20.00       2027.    
     MULTIPLE LAYERS AND PROPORTIONS :    1, 0.47       2, 0.53
  1238 2737-42-363     42    363.0       2008.    
     MULTIPLE LAYERS AND PROPORTIONS :    1, 0.54       2, 0.46
  1239 2717-2-1         2   1.0000       2069.    
  1240 2716-8-32        8    32.00       2057.    
  1241 2727-11-121     11    121.0       2014.    
  1242 2789-12-271     12    271.0       1861.    
  1243 2696-1-364       1    364.0       2056.    
 Observation within a steady-state time step has been moved to the end of the time step.
  1244 2696-6-341       6    341.0       2041.    
  1245 2696-11-334     11    334.0       2035.    
  1246 2696-16-313     16    313.0       2031.    
  1247 2696-22-34      22    34.00       2031.    
  1248 2708-48-337     48    337.0       1999.    
  1249 2708-56-19      56    19.00       1995.    
  1250 2708-66-28      66    28.00       1983.    
  1251 2701-32-43      32    43.00       2047.    
     MULTIPLE LAYERS AND PROPORTIONS :    1, 0.37       2, 0.41       3, 0.22
  1252 2701-42-363     42    363.0       2029.    
     MULTIPLE LAYERS AND PROPORTIONS :    1, 0.37       2, 0.41       3, 0.22
  1253 2701-56-19      56    19.00       2055.    
     MULTIPLE LAYERS AND PROPORTIONS :    1, 0.37       2, 0.41       3, 0.22
  1254 2668-42-363     42    363.0       2099.    
  1255 2668-56-19      56    19.00       2095.    
  1256 2668-61-52      61    52.00       2091.    
  1257 2668-66-35      66    35.00       2087.    
  1258 2681-8-32        8    32.00       2095.    
  1259 2678-48-335     48    335.0       2074.    
  1260 2678-56-23      56    23.00       2096.    
  1261 2678-61-54      61    54.00       2071.    
  1262 2678-66-20      66    20.00       2046.    
  1263 2690-66-55      66    55.00       2036.    
  1264 2692-2-1         2   1.0000       2090.    
  1265 2676-43-27      43    27.00       2084.    
     MULTIPLE LAYERS AND PROPORTIONS :    1, 0.11       2, 0.89
  1266 2676-48-335     48    335.0       2082.    
     MULTIPLE LAYERS AND PROPORTIONS :    1, 0.11       2, 0.89
  1267 2676-56-23      56    23.00       2090.    
     MULTIPLE LAYERS AND PROPORTIONS :    1, 0.11       2, 0.89
  1268 2676-61-53      61    53.00       2073.    
     MULTIPLE LAYERS AND PROPORTIONS :    1, 0.11       2, 0.89
  1269 2676-66-13      66    13.00       2057.    
     MULTIPLE LAYERS AND PROPORTIONS :    1, 0.11       2, 0.89
  1270 2705-48-335     48    335.0       2072.    
  1271 2705-56-23      56    23.00       2084.    
  1272 2705-61-54      61    54.00       2067.    
  1273 2705-66-18      66    18.00       2041.    
  1274 2707-43-27      43    27.00       2068.    
     MULTIPLE LAYERS AND PROPORTIONS :    1, 0.31       2, 0.69
  1275 2707-48-335     48    335.0       2067.    
     MULTIPLE LAYERS AND PROPORTIONS :    1, 0.31       2, 0.69
  1276 2707-56-23      56    23.00       2080.    
     MULTIPLE LAYERS AND PROPORTIONS :    1, 0.31       2, 0.69
  1277 2707-61-53      61    53.00       2062.    
     MULTIPLE LAYERS AND PROPORTIONS :    1, 0.31       2, 0.69
  1278 2707-66-20      66    20.00       2036.    
     MULTIPLE LAYERS AND PROPORTIONS :    1, 0.31       2, 0.69
  1279 2689-48-335     48    335.0       2068.    
  1280 2689-56-20      56    20.00       2084.    
  1281 2656-43-27      43    27.00       2089.    
  1282 2656-48-334     48    334.0       2086.    
  1283 2656-56-23      56    23.00       2110.    
  1284 2656-61-53      61    53.00       2083.    
  1285 2656-66-20      66    20.00       2058.    
  1286 2674-33-76      33    76.00       2097.    
  1287 2973-56-19      56    19.00       2361.    
     MULTIPLE LAYERS AND PROPORTIONS :    2, 0.52       3, 0.48
  1288 2973-66-32      66    32.00       2345.    
     MULTIPLE LAYERS AND PROPORTIONS :    2, 0.52       3, 0.48
  1289 2973-71-56      71    56.00       2326.    
     MULTIPLE LAYERS AND PROPORTIONS :    2, 0.52       3, 0.48
  1290 2977-38-91      38    91.00       2353.    
     MULTIPLE LAYERS AND PROPORTIONS :    2, 0.89       3, 0.11
  1291 2977-43-6       43    6.000       2361.    
     MULTIPLE LAYERS AND PROPORTIONS :    2, 0.89       3, 0.11
  1292 2977-48-335     48    335.0       2303.    
     MULTIPLE LAYERS AND PROPORTIONS :    2, 0.89       3, 0.11
  1293 2977-66-32      66    32.00       2340.    
     MULTIPLE LAYERS AND PROPORTIONS :    2, 0.89       3, 0.11
  1294 2991-42-362     42    362.0       2218.    
  1295 2991-48-334     48    334.0       2217.    
  1296 2991-56-27      56    27.00       2215.    
  1297 2991-61-59      61    59.00       2212.    
  1298 2991-66-25      66    25.00       2208.    
  1299 2991-71-57      71    57.00       2201.    
  1300 2966-42-362     42    362.0       2195.    
     MULTIPLE LAYERS AND PROPORTIONS :    2, 0.28       3, 0.72
  1301 2932-42-362     42    362.0       2079.    
  1302 2932-48-336     48    336.0       2078.    
  1303 2932-56-24      56    24.00       2073.    
  1304 2914-42-357     42    357.0       2126.    
  1305 2914-48-365     48    365.0       2119.    
  1306 2914-55-342     55    342.0       2106.    
  1307 2914-61-38      61    38.00       2100.    
  1308 2914-66-40      66    40.00       2091.    
  1309 2914-71-335     71    335.0       2076.    
  1310 2940-55-342     55    342.0       2119.    
  1311 2917-42-365     42    365.0       2135.    
  1312 2917-48-336     48    336.0       2132.    
  1313 2917-56-26      56    26.00       2119.    
  1314 2917-61-59      61    59.00       2102.    
  1315 2917-66-27      66    27.00       2108.    
  1316 2917-71-55      71    55.00       2097.    
  1317 2924-42-362     42    362.0       2164.    
  1318 2930-36-43      36    43.00       2337.    
  1319 2930-56-27      56    27.00       2345.    
  1320 2930-66-33      66    33.00       2292.    
  1321 2930-71-56      71    56.00       2273.    
  1322 2929-42-357     42    357.0       2414.    
     MULTIPLE LAYERS AND PROPORTIONS :    2, 0.33       3, 0.67
  1323 2929-48-355     48    355.0       2427.    
     MULTIPLE LAYERS AND PROPORTIONS :    2, 0.33       3, 0.67
  1324 2929-55-342     55    342.0       2428.    
     MULTIPLE LAYERS AND PROPORTIONS :    2, 0.33       3, 0.67
  1325 2929-60-362     60    362.0       2395.    
     MULTIPLE LAYERS AND PROPORTIONS :    2, 0.33       3, 0.67
  1326 2929-66-1       66   1.0000       2345.    
     MULTIPLE LAYERS AND PROPORTIONS :    2, 0.33       3, 0.67
  1327 2929-71-335     71    335.0       2323.    
     MULTIPLE LAYERS AND PROPORTIONS :    2, 0.33       3, 0.67
  1328 2888-43-6       43    6.000       2314.    
     MULTIPLE LAYERS AND PROPORTIONS :    2, 0.37       3, 0.63
  1329 2888-48-334     48    334.0       2312.    
     MULTIPLE LAYERS AND PROPORTIONS :    2, 0.37       3, 0.63
  1330 2888-56-26      56    26.00       2312.    
     MULTIPLE LAYERS AND PROPORTIONS :    2, 0.37       3, 0.63
  1331 2888-66-32      66    32.00       2268.    
     MULTIPLE LAYERS AND PROPORTIONS :    2, 0.37       3, 0.63
  1332 2888-71-56      71    56.00       2248.    
     MULTIPLE LAYERS AND PROPORTIONS :    2, 0.37       3, 0.63
  1333 2856-32-84      32    84.00       2310.    
     MULTIPLE LAYERS AND PROPORTIONS :    2, 0.81       3, 0.19
  1334 2852-43-5       43    5.000       2289.    
     MULTIPLE LAYERS AND PROPORTIONS :    2, 0.96       3, 0.04
  1335 2852-56-19      56    19.00       2286.    
     MULTIPLE LAYERS AND PROPORTIONS :    2, 0.96       3, 0.04
  1336 2852-66-35      66    35.00       2251.    
     MULTIPLE LAYERS AND PROPORTIONS :    2, 0.96       3, 0.04
  1337 2852-71-56      71    56.00       2229.    
     MULTIPLE LAYERS AND PROPORTIONS :    2, 0.96       3, 0.04
  1338 2869-43-8       43    8.000       2322.    
  1339 2869-48-334     48    334.0       2322.    
  1340 2869-56-24      56    24.00       2325.    
  1341 2899-42-362     42    362.0       2169.    
  1342 2899-48-338     48    338.0       2165.    
  1343 2903-33-257     33    257.0       2172.    
     MULTIPLE LAYERS AND PROPORTIONS :    2, 0.86       3, 0.14
  1344 2908-42-357     42    357.0       2149.    
  1345 2908-48-356     48    356.0       2145.    
  1346 2908-55-342     55    342.0       2130.    
  1347 2908-66-26      66    26.00       2118.    
  1348 2908-71-335     71    335.0       2103.    
  1349 2879-55-342     55    342.0       2098.    
  1350 2879-61-40      61    40.00       2094.    
  1351 2879-66-19      66    19.00       2087.    
  1352 2879-71-335     71    335.0       2071.    
  1353 2878-66-26      66    26.00       2111.    
  1354 2878-71-335     71    335.0       2094.    
  1355 2897-1-274       1    274.0       2168.    
 Observation within a steady-state time step has been moved to the end of the time step.
  1356 2897-6-284       6    284.0       2163.    
  1357 2898-11-34      11    34.00       2156.    
  1358 2898-16-361     16    361.0       2147.    
  1359 2898-37-33      37    33.00       2120.    
  1360 2882-43-32      43    32.00       2090.    
  1361 2882-48-365     48    365.0       2088.    
  1362 2882-55-342     55    342.0       2079.    
  1363 2882-61-38      61    38.00       2073.    
  1364 2882-66-40      66    40.00       2061.    
  1365 2882-71-335     71    335.0       2048.    
  1366 2870-33-274     33    274.0       2085.    
  1367 2862-33-135     33    135.0       2110.    
  1368 2824-66-31      66    31.00       2077.    
  1369 2824-71-54      71    54.00       2069.    
  1370 2807-49-5       49    5.000       2134.    
  1371 2807-55-342     55    342.0       2112.    
  1372 2807-71-62      71    62.00       2078.    
  1373 2797-71-62      71    62.00       2081.    
  1374 2845-66-35      66    35.00       2167.    
  1375 2845-71-62      71    62.00       2154.    
  1376 2841-1-274       1    274.0       2225.    
 Observation within a steady-state time step has been moved to the end of the time step.
  1377 2841-6-284       6    284.0       2221.    
  1378 2841-11-34      11    34.00       2216.    
  1379 2841-16-361     16    361.0       2204.    
  1380 2841-38-91      38    91.00       2174.    
  1381 2841-39-91      39    91.00       2173.    
  1382 2841-42-364     42    364.0       2172.    
  1383 2841-48-336     48    336.0       2167.    
  1384 2815-56-24      56    24.00       2141.    
  1385 2801-33-52      33    52.00       2182.    
  1386 2844-43-6       43    6.000       2206.    
  1387 2844-48-334     48    334.0       2200.    
  1388 2844-56-19      56    19.00       2197.    
  1389 2844-66-34      66    34.00       2189.    
  1390 2844-71-61      71    61.00       2232.    
  1391 2819-56-17      56    17.00       2213.    
  1392 2825-56-19      56    19.00       2187.    
  1393 2825-66-35      66    35.00       2215.    
  1394 2794-33-62      33    62.00       2149.    
  1395 2791-42-356     42    356.0       2195.    
  1396 2791-48-337     48    337.0       2171.    
  1397 2791-61-61      61    61.00       2160.    
  1398 2791-66-26      66    26.00       2146.    
  1399 2806-42-356     42    356.0       2222.    
     MULTIPLE LAYERS AND PROPORTIONS :    2, 0.61       3, 0.39
  1400 2806-48-337     48    337.0       2214.    
     MULTIPLE LAYERS AND PROPORTIONS :    2, 0.61       3, 0.39
  1401 2840-43-5       43    5.000       2293.    
  1402 2840-48-334     48    334.0       2294.    
  1403 2840-56-19      56    19.00       2291.    
  1404 2840-61-56      61    56.00       2278.    
  1405 2840-66-32      66    32.00       2257.    
  1406 2827-66-32      66    32.00       2236.    
  1407 2827-71-61      71    61.00       2213.    
  1408 2813-66-26      66    26.00       2210.    
  1409 2813-71-323     71    323.0       2178.    
  1410 2814-42-357     42    357.0       2232.    
     MULTIPLE LAYERS AND PROPORTIONS :    2, 0.62       3, 0.38
  1411 2814-55-342     55    342.0       2222.    
     MULTIPLE LAYERS AND PROPORTIONS :    2, 0.62       3, 0.38
  1412 2814-61-35      61    35.00       2215.    
     MULTIPLE LAYERS AND PROPORTIONS :    2, 0.62       3, 0.38
  1413 2814-66-26      66    26.00       2200.    
     MULTIPLE LAYERS AND PROPORTIONS :    2, 0.62       3, 0.38
  1414 2804-42-357     42    357.0       2231.    
     MULTIPLE LAYERS AND PROPORTIONS :    2, 0.18       3, 0.82
  1415 2804-55-342     55    342.0       2222.    
     MULTIPLE LAYERS AND PROPORTIONS :    2, 0.18       3, 0.82
  1416 2804-61-35      61    35.00       2214.    
     MULTIPLE LAYERS AND PROPORTIONS :    2, 0.18       3, 0.82
  1417 2804-66-26      66    26.00       2199.    
     MULTIPLE LAYERS AND PROPORTIONS :    2, 0.18       3, 0.82
  1418 2812-42-335     42    335.0       2311.    
  1419 2812-48-355     48    355.0       2307.    
  1420 2812-55-342     55    342.0       2303.    
  1421 2812-61-35      61    35.00       2295.    
  1422 2812-71-323     71    323.0       2247.    
  1423 2765-42-357     42    357.0       2207.    
  1424 2765-48-355     48    355.0       2200.    
  1425 2765-55-342     55    342.0       2197.    
  1426 2765-61-35      61    35.00       2192.    
  1427 2765-66-26      66    26.00       2180.    
  1428 2765-71-323     71    323.0       2156.    
  1429 2728-8-69        8    69.00       2235.    
  1430 2719-42-357     42    357.0       2193.    
  1431 2719-48-356     48    356.0       2188.    
  1432 2719-55-343     55    343.0       2181.    
  1433 2726-42-357     42    357.0       2200.    
  1434 2726-48-355     48    355.0       2193.    
  1435 2726-55-342     55    342.0       2190.    
  1436 2726-61-35      61    35.00       2185.    
  1437 2726-66-26      66    26.00       2173.    
  1438 2726-71-323     71    323.0       2151.    
  1439 2784-71-62      71    62.00       2079.    
  1440 2730-56-24      56    24.00       2146.    
  1441 2730-61-54      61    54.00       2138.    
  1442 2730-66-18      66    18.00       2121.    
  1443 2781-16-361     16    361.0       2176.    
  1444 2782-17-7       17    7.000       2174.    
  1445 2782-71-62      71    62.00       2077.    
  1446 2762-48-338     48    338.0       2121.    
  1447 2785-56-23      56    23.00       2118.    
  1448 2785-66-19      66    19.00       2086.    
  1449 2757-56-24      56    24.00       2116.    
  1450 2757-66-19      66    19.00       2086.    
  1451 2763-56-24      56    24.00       2114.    
  1452 2763-66-19      66    19.00       2080.    
  1453 2729-56-24      56    24.00       2122.    
  1454 2729-66-18      66    18.00       2088.    
  1455 2720-16-298     16    298.0       2169.    
  1456 2720-22-31      22    31.00       2162.    
  1457 2706-66-35      66    35.00       2088.    
  1458 2710-56-24      56    24.00       2141.    
  1459 2755-56-23      56    23.00       2094.    
  1460 2755-61-54      61    54.00       2084.    
  1461 2755-66-18      66    18.00       2074.    
  1462 2735-1-365       1    365.0       2237.    
 Observation within a steady-state time step has been moved to the end of the time step.
  1463 2778-33-182     33    182.0       2092.    
  1464 2759-34-121     34    121.0       2105.    
  1465 2738-66-26      66    26.00       2051.    
  1466 2738-71-348     71    348.0       2053.    
  1467 2733-10-280     10    280.0       2107.    
  1468 2733-22-19      22    19.00       2094.    
  1469 2733-42-362     42    362.0       2087.    
  1470 2733-48-362     48    362.0       2085.    
  1471 2733-55-342     55    342.0       2082.    
  1472 2733-61-38      61    38.00       2071.    
  1473 2733-66-40      66    40.00       2050.    
  1474 2733-71-348     71    348.0       2045.    
  1475 2698-49-8       49    8.000       2085.    
  1476 2698-55-342     55    342.0       2092.    
  1477 2698-61-10      61   10.000       2091.    
  1478 2698-71-348     71    348.0       2053.    
  1479 2665-42-362     42    362.0       2093.    
     MULTIPLE LAYERS AND PROPORTIONS :    1, 0.14       2, 0.86
  1480 2665-48-362     48    362.0       2091.    
     MULTIPLE LAYERS AND PROPORTIONS :    1, 0.14       2, 0.86
  1481 2665-55-342     55    342.0       2098.    
     MULTIPLE LAYERS AND PROPORTIONS :    1, 0.14       2, 0.86
  1482 2665-61-4       61    4.000       2086.    
     MULTIPLE LAYERS AND PROPORTIONS :    1, 0.14       2, 0.86
  1483 2665-66-26      66    26.00       2056.    
     MULTIPLE LAYERS AND PROPORTIONS :    1, 0.14       2, 0.86
  1484 2665-71-348     71    348.0       2061.    
     MULTIPLE LAYERS AND PROPORTIONS :    1, 0.14       2, 0.86
  1485 2664-1-360       1    360.0       2134.    
 Observation within a steady-state time step has been moved to the end of the time step.
  1486 2664-6-341       6    341.0       2125.    
  1487 2662-42-362     42    362.0       2094.    
  1488 2662-48-361     48    361.0       2091.    
  1489 2662-55-342     55    342.0       2094.    
  1490 2662-71-348     71    348.0       2057.    
  1491 2659-55-342     55    342.0       2093.    
  1492 2659-61-11      61    11.00       2063.    
  1493 2659-66-26      66    26.00       2057.    
  1494 2659-71-348     71    348.0       2060.    
  1495 2658-1-92        1    92.00       2100.    
 Observation within a steady-state time step has been moved to the end of the time step.
  1496 2742-17-3       17    3.000       2141.    
  1497 2742-22-1       22   1.0000       2140.    
  1498 2742-38-91      38    91.00       2123.    
  1499 2742-56-24      56    24.00       2107.    
  1500 2742-61-54      61    54.00       2093.    
  1501 2742-66-31      66    31.00       2068.    
  1502 2742-71-62      71    62.00       2064.    
  1503 2683-42-362     42    362.0       2093.    
  1504 2683-48-362     48    362.0       2090.    
  1505 2683-55-342     55    342.0       2081.    
  1506 2683-61-32      61    32.00       2079.    
  1507 2683-66-40      66    40.00       2053.    
  1508 2686-1-274       1    274.0       2157.    
 Observation within a steady-state time step has been moved to the end of the time step.
  1509 2686-6-283       6    283.0       2150.    
  1510 2686-10-280     10    280.0       2137.    
  1511 2666-1-274       1    274.0       2111.    
 Observation within a steady-state time step has been moved to the end of the time step.
  1512 2666-6-283       6    283.0       2101.    
  1513 2670-17-3       17    3.000       2140.    
  1514 2670-22-31      22    31.00       2138.    
  1515 2670-31-351     31    351.0       2129.    
  1516 2670-36-50      36    50.00       2126.    
  1517 2670-42-352     42    352.0       2116.    
  1518 2670-56-24      56    24.00       2108.    
  1519 2670-61-54      61    54.00       2091.    
  1520 2670-66-33      66    33.00       2063.    
  1521 2670-71-62      71    62.00       2070.    
  1522 2703-36-244     36    244.0       2194.    
  1523 2703-48-355     48    355.0       2189.    
  1524 2703-55-343     55    343.0       2184.    
  1525 2703-61-35      61    35.00       2180.    
  1526 2703-66-19      66    19.00       2178.    
  1527 2703-71-323     71    323.0       2147.    
  1528 2680-71-61      71    61.00       2159.    
  1529 2704-42-335     42    335.0       2188.    
  1530 2704-48-356     48    356.0       2184.    
  1531 2672-42-356     42    356.0       2170.    
  1532 2672-66-33      66    33.00       2154.    
  1533 2672-71-63      71    63.00       2142.    
  1534 2657-42-356     42    356.0       2158.    
  1535 2657-66-33      66    33.00       2152.    
  1536 2685-42-356     42    356.0       2197.    
  1537 2685-48-355     48    355.0       2193.    
  1538 2685-55-343     55    343.0       2186.    
  1539 2685-61-35      61    35.00       2183.    
  1540 2685-66-26      66    26.00       2173.    
  1541 2685-71-323     71    323.0       2154.    
  1542 2983-16-361     16    361.0       2632.    
  1543 2983-22-31      22    31.00       2610.    
  1544 2983-27-11      27    11.00       2618.    
  1545 2980-43-8       43    8.000       2567.    
  1546 2980-48-334     48    334.0       2581.    
  1547 2980-56-24      56    24.00       2581.    
  1548 2990-16-361     16    361.0       2525.    
  1549 2990-48-337     48    337.0       2544.    
  1550 2990-56-24      56    24.00       2562.    
  1551 2956-2-85        2    85.00       2545.    
  1552 2956-6-284       6    284.0       2530.    
  1553 2956-12-261     12    261.0       2511.    
  1554 2956-16-133     16    133.0       2520.    
  1555 2956-26-124     26    124.0       2513.    
  1556 2956-37-34      37    34.00       2520.    
  1557 2956-43-5       43    5.000       2537.    
  1558 2956-48-334     48    334.0       2551.    
  1559 2956-56-27      56    27.00       2553.    
  1560 2956-66-35      66    35.00       2495.    
  1561 2956-71-12      71    12.00       2500.    
  1562 2956-71-365     71    365.0       2513.    
  1563 2931-11-62      11    62.00       2429.    
  1564 2931-16-361     16    361.0       2420.    
  1565 2931-22-31      22    31.00       2415.    
  1566 2635-56-25      56    25.00       1731.    
  1567 2595-16-355     16    355.0       1833.    
  1568 2595-48-349     48    349.0       1721.    
  1569 2595-55-355     55    355.0       1728.    
  1570 2595-61-4       61    4.000       1733.    
  1571 2595-66-47      66    47.00       1743.    
  1572 2595-71-5       71    5.000       1753.    
  1573 2595-71-365     71    365.0       1755.    
  1574 2594-48-350     48    350.0       1725.    
     MULTIPLE LAYERS AND PROPORTIONS :    2, 0.12       3, 0.88
  1575 2594-55-355     55    355.0       1732.    
     MULTIPLE LAYERS AND PROPORTIONS :    2, 0.12       3, 0.88
  1576 2594-66-47      66    47.00       1746.    
     MULTIPLE LAYERS AND PROPORTIONS :    2, 0.12       3, 0.88
  1577 2594-71-5       71    5.000       1757.    
     MULTIPLE LAYERS AND PROPORTIONS :    2, 0.12       3, 0.88
  1578 2594-71-365     71    365.0       1760.    
     MULTIPLE LAYERS AND PROPORTIONS :    2, 0.12       3, 0.88
  1579 2599-66-47      66    47.00       1746.    
  1580 2599-71-5       71    5.000       1756.    
  1581 2599-71-365     71    365.0       1758.    
  1582 2596-42-351     42    351.0       1713.    
     MULTIPLE LAYERS AND PROPORTIONS :    2, 0.12       3, 0.88
  1583 2596-48-349     48    349.0       1721.    
     MULTIPLE LAYERS AND PROPORTIONS :    2, 0.12       3, 0.88
  1584 2596-55-355     55    355.0       1728.    
     MULTIPLE LAYERS AND PROPORTIONS :    2, 0.12       3, 0.88
  1585 2596-61-4       61    4.000       1733.    
     MULTIPLE LAYERS AND PROPORTIONS :    2, 0.12       3, 0.88
  1586 2596-66-34      66    34.00       1742.    
     MULTIPLE LAYERS AND PROPORTIONS :    2, 0.12       3, 0.88
  1587 2596-71-5       71    5.000       1753.    
  1588 2596-71-365     71    365.0       1755.    
  1589 2591-56-3       56    3.000       1728.    
  1590 2591-61-4       61    4.000       1732.    
  1591 2591-66-34      66    34.00       1742.    
  1592 2591-71-5       71    5.000       1753.    
  1593 2591-71-365     71    365.0       1755.    
  1594 2588-42-351     42    351.0       1710.    
  1595 2588-48-349     48    349.0       1715.    
  1596 2588-55-355     55    355.0       1722.    
  1597 2588-61-4       61    4.000       1726.    
  1598 2588-66-47      66    47.00       1736.    
  1599 2588-71-4       71    4.000       1746.    
  1600 2588-71-365     71    365.0       1749.    
  1601 2564-12-171     12    171.0       1866.    
  1602 2564-16-355     16    355.0       1833.    
  1603 2564-22-37      22    37.00       1807.    
  1604 2530-42-351     42    351.0       1722.    
     MULTIPLE LAYERS AND PROPORTIONS :    2, 0.05       3, 0.95
  1605 2530-48-349     48    349.0       1730.    
     MULTIPLE LAYERS AND PROPORTIONS :    2, 0.05       3, 0.95
  1606 2530-55-355     55    355.0       1739.    
     MULTIPLE LAYERS AND PROPORTIONS :    2, 0.05       3, 0.95
  1607 2530-61-6       61    6.000       1743.    
     MULTIPLE LAYERS AND PROPORTIONS :    2, 0.05       3, 0.95
  1608 2530-66-47      66    47.00       1754.    
     MULTIPLE LAYERS AND PROPORTIONS :    2, 0.05       3, 0.95
  1609 2530-71-5       71    5.000       1764.    
  1610 2530-71-365     71    365.0       1766.    
  1611 2529-17-6       17    6.000       1844.    
  1612 2529-56-24      56    24.00       1737.    
  1613 2529-61-52      61    52.00       1742.    
  1614 2529-66-19      66    19.00       1751.    
  1615 2587-1-105       1    105.0       1880.    
 Observation within a steady-state time step has been moved to the end of the time step.
  1616 2587-7-3         7    3.000       1880.    
  1617 2449-32-85      32    85.00       1798.    
  1618 2492-48-349     48    349.0       1742.    
     MULTIPLE LAYERS AND PROPORTIONS :    2, 0.26       3, 0.74
  1619 2492-61-4       61    4.000       1757.    
     MULTIPLE LAYERS AND PROPORTIONS :    2, 0.26       3, 0.74
  1620 2492-66-39      66    39.00       1766.    
     MULTIPLE LAYERS AND PROPORTIONS :    2, 0.26       3, 0.74
  1621 2492-71-6       71    6.000       1776.    
  1622 2492-71-365     71    365.0       1779.    
  1623 2491-56-3       56    3.000       1769.    
  1624 2491-61-6       61    6.000       1771.    
  1625 2491-66-39      66    39.00       1779.    
  1626 2491-71-6       71    6.000       1788.    
  1627 2491-71-365     71    365.0       1789.    
  1628 2450-48-349     48    349.0       1771.    
     MULTIPLE LAYERS AND PROPORTIONS :    2, 0.28       3, 0.72
  1629 2450-55-354     55    354.0       1777.    
     MULTIPLE LAYERS AND PROPORTIONS :    2, 0.28       3, 0.72
  1630 2450-61-4       61    4.000       1779.    
     MULTIPLE LAYERS AND PROPORTIONS :    2, 0.28       3, 0.72
  1631 2450-66-39      66    39.00       1785.    
     MULTIPLE LAYERS AND PROPORTIONS :    2, 0.28       3, 0.72
  1632 2450-71-6       71    6.000       1795.    
  1633 2450-71-365     71    365.0       1796.    
  1634 2451-48-349     48    349.0       1763.    
     MULTIPLE LAYERS AND PROPORTIONS :    2, 0.31       3, 0.69
  1635 2451-55-355     55    355.0       1771.    
     MULTIPLE LAYERS AND PROPORTIONS :    2, 0.31       3, 0.69
  1636 2451-61-4       61    4.000       1774.    
     MULTIPLE LAYERS AND PROPORTIONS :    2, 0.31       3, 0.69
  1637 2451-66-27      66    27.00       1778.    
     MULTIPLE LAYERS AND PROPORTIONS :    2, 0.31       3, 0.69
  1638 2451-71-6       71    6.000       1788.    
  1639 2451-71-365     71    365.0       1790.    
  1640 2442-48-348     48    348.0       1728.    
  1641 2442-56-23      56    23.00       1738.    
  1642 2442-60-319     60    319.0       1740.    
  1643 2442-66-26      66    26.00       1748.    
  1644 2442-71-11      71    11.00       1762.    
  1645 2452-12-171     12    171.0       1883.    
  1646 2452-16-314     16    314.0       1834.    
  1647 2452-32-85      32    85.00       1756.    
  1648 2452-35-53      35    53.00       1745.    
  1649 2390-42-351     42    351.0       1719.    
  1650 2390-48-349     48    349.0       1727.    
  1651 2390-55-355     55    355.0       1736.    
  1652 2390-66-47      66    47.00       1751.    
  1653 2390-71-6       71    6.000       1762.    
  1654 2390-71-365     71    365.0       1764.    
  1655 2303-42-351     42    351.0       1724.    
     MULTIPLE LAYERS AND PROPORTIONS :    2, 0.07       3, 0.93
  1656 2303-48-349     48    349.0       1730.    
     MULTIPLE LAYERS AND PROPORTIONS :    2, 0.07       3, 0.93
  1657 2303-55-355     55    355.0       1738.    
     MULTIPLE LAYERS AND PROPORTIONS :    2, 0.07       3, 0.93
  1658 2303-61-4       61    4.000       1743.    
     MULTIPLE LAYERS AND PROPORTIONS :    2, 0.07       3, 0.93
  1659 2303-66-47      66    47.00       1752.    
     MULTIPLE LAYERS AND PROPORTIONS :    2, 0.07       3, 0.93
  1660 2303-71-6       71    6.000       1763.    
  1661 2303-71-365     71    365.0       1765.    
  1662 2417-56-24      56    24.00       1738.    
  1663 2417-61-54      61    54.00       1743.    
  1664 2411-56-24      56    24.00       1738.    
  1665 2411-61-54      61    54.00       1743.    
  1666 2259-42-352     42    352.0       1727.    
  1667 2259-56-3       56    3.000       1745.    
  1668 2296-22-38      22    38.00       1830.    
     MULTIPLE LAYERS AND PROPORTIONS :    2, 0.10       3, 0.90
  1669 2296-42-352     42    352.0       1741.    
     MULTIPLE LAYERS AND PROPORTIONS :    2, 0.10       3, 0.90
  1670 2296-48-350     48    350.0       1751.    
     MULTIPLE LAYERS AND PROPORTIONS :    2, 0.10       3, 0.90
  1671 2296-55-354     55    354.0       1759.    
     MULTIPLE LAYERS AND PROPORTIONS :    2, 0.10       3, 0.90
  1672 2296-61-6       61    6.000       1764.    
     MULTIPLE LAYERS AND PROPORTIONS :    2, 0.10       3, 0.90
  1673 2296-66-39      66    39.00       1772.    
     MULTIPLE LAYERS AND PROPORTIONS :    2, 0.10       3, 0.90
  1674 2296-71-6       71    6.000       1781.    
  1675 2296-71-365     71    365.0       1782.    
  1676 2302-48-350     48    350.0       1777.    
     MULTIPLE LAYERS AND PROPORTIONS :    2, 0.29       3, 0.71
  1677 2302-55-354     55    354.0       1777.    
     MULTIPLE LAYERS AND PROPORTIONS :    2, 0.29       3, 0.71
  1678 2302-61-6       61    6.000       1789.    
     MULTIPLE LAYERS AND PROPORTIONS :    2, 0.29       3, 0.71
  1679 2302-66-32      66    32.00       1790.    
     MULTIPLE LAYERS AND PROPORTIONS :    2, 0.29       3, 0.71
  1680 2302-71-6       71    6.000       1799.    
  1681 2302-71-365     71    365.0       1800.    
  1682 2301-37-33      37    33.00       1770.    
     MULTIPLE LAYERS AND PROPORTIONS :    2, 0.27       3, 0.73
  1683 2301-42-352     42    352.0       1779.    
     MULTIPLE LAYERS AND PROPORTIONS :    2, 0.27       3, 0.73
  1684 2301-48-349     48    349.0       1792.    
     MULTIPLE LAYERS AND PROPORTIONS :    2, 0.27       3, 0.73
  1685 2301-55-354     55    354.0       1797.    
     MULTIPLE LAYERS AND PROPORTIONS :    2, 0.27       3, 0.73
  1686 2301-66-1       66   1.0000       1802.    
     MULTIPLE LAYERS AND PROPORTIONS :    2, 0.27       3, 0.73
  1687 2301-71-6       71    6.000       1809.    
     MULTIPLE LAYERS AND PROPORTIONS :    2, 0.27       3, 0.73
  1688 2301-71-365     71    365.0       1811.    
     MULTIPLE LAYERS AND PROPORTIONS :    2, 0.27       3, 0.73
  1689 2440-55-354     55    354.0       1790.    
  1690 2440-61-6       61    6.000       1793.    
  1691 2440-65-342     65    342.0       1796.    
  1692 2440-71-6       71    6.000       1808.    
  1693 2440-71-365     71    365.0       1809.    
  1694 2300-16-354     16    354.0       1887.    
     MULTIPLE LAYERS AND PROPORTIONS :    2, 0.44       3, 0.56
  1695 2300-48-350     48    350.0       1798.    
     MULTIPLE LAYERS AND PROPORTIONS :    2, 0.44       3, 0.56
  1696 2300-55-355     55    355.0       1805.    
     MULTIPLE LAYERS AND PROPORTIONS :    2, 0.44       3, 0.56
  1697 2300-61-6       61    6.000       1809.    
     MULTIPLE LAYERS AND PROPORTIONS :    2, 0.44       3, 0.56
  1698 2300-65-341     65    341.0       1808.    
     MULTIPLE LAYERS AND PROPORTIONS :    2, 0.44       3, 0.56
  1699 2300-71-7       71    7.000       1820.    
     MULTIPLE LAYERS AND PROPORTIONS :    2, 0.44       3, 0.56
  1700 2300-71-365     71    365.0       1820.    
  1701 2220-12-311     12    311.0       1928.    
     MULTIPLE LAYERS AND PROPORTIONS :    2, 0.13       3, 0.87
  1702 2220-16-356     16    356.0       1891.    
     MULTIPLE LAYERS AND PROPORTIONS :    2, 0.13       3, 0.87
  1703 2220-48-350     48    350.0       1810.    
     MULTIPLE LAYERS AND PROPORTIONS :    2, 0.13       3, 0.87
  1704 2220-55-354     55    354.0       1812.    
     MULTIPLE LAYERS AND PROPORTIONS :    2, 0.13       3, 0.87
  1705 2220-61-7       61    7.000       1815.    
     MULTIPLE LAYERS AND PROPORTIONS :    2, 0.13       3, 0.87
  1706 2220-66-39      66    39.00       1812.    
     MULTIPLE LAYERS AND PROPORTIONS :    2, 0.13       3, 0.87
  1707 2220-71-7       71    7.000       1827.    
     MULTIPLE LAYERS AND PROPORTIONS :    2, 0.13       3, 0.87
  1708 2220-71-365     71    365.0       1826.    
  1709 2222-55-354     55    354.0       1806.    
     MULTIPLE LAYERS AND PROPORTIONS :    2, 0.07       3, 0.93
  1710 2222-61-6       61    6.000       1815.    
     MULTIPLE LAYERS AND PROPORTIONS :    2, 0.07       3, 0.93
  1711 2222-65-341     65    341.0       1809.    
     MULTIPLE LAYERS AND PROPORTIONS :    2, 0.07       3, 0.93
  1712 2222-71-7       71    7.000       1822.    
     MULTIPLE LAYERS AND PROPORTIONS :    2, 0.07       3, 0.93
  1713 2222-71-365     71    365.0       1821.    
  1714 2096-48-350     48    350.0       1816.    
     MULTIPLE LAYERS AND PROPORTIONS :    2, 0.42       3, 0.58
  1715 2096-55-354     55    354.0       1818.    
     MULTIPLE LAYERS AND PROPORTIONS :    2, 0.42       3, 0.58
  1716 2096-61-6       61    6.000       1824.    
     MULTIPLE LAYERS AND PROPORTIONS :    2, 0.42       3, 0.58
  1717 2096-65-343     65    343.0       1814.    
     MULTIPLE LAYERS AND PROPORTIONS :    2, 0.42       3, 0.58
  1718 2096-71-7       71    7.000       1828.    
     MULTIPLE LAYERS AND PROPORTIONS :    2, 0.42       3, 0.58
  1719 2096-71-365     71    365.0       1827.    
  1720 2089-12-171     12    171.0       1917.    
     MULTIPLE LAYERS AND PROPORTIONS :    2, 0.14       3, 0.86
  1721 2089-42-352     42    352.0       1788.    
     MULTIPLE LAYERS AND PROPORTIONS :    2, 0.14       3, 0.86
  1722 2089-48-350     48    350.0       1796.    
     MULTIPLE LAYERS AND PROPORTIONS :    2, 0.14       3, 0.86
  1723 2089-55-354     55    354.0       1801.    
     MULTIPLE LAYERS AND PROPORTIONS :    2, 0.14       3, 0.86
  1724 2089-61-6       61    6.000       1803.    
     MULTIPLE LAYERS AND PROPORTIONS :    2, 0.14       3, 0.86
  1725 2089-66-55      66    55.00       1803.    
     MULTIPLE LAYERS AND PROPORTIONS :    2, 0.14       3, 0.86
  1726 2089-71-6       71    6.000       1809.    
  1727 2089-71-365     71    365.0       1810.    
  1728 2088-42-352     42    352.0       1799.    
     MULTIPLE LAYERS AND PROPORTIONS :    2, 0.17       3, 0.83
  1729 2088-48-350     48    350.0       1807.    
     MULTIPLE LAYERS AND PROPORTIONS :    2, 0.17       3, 0.83
  1730 2088-55-354     55    354.0       1811.    
     MULTIPLE LAYERS AND PROPORTIONS :    2, 0.17       3, 0.83
  1731 2088-61-6       61    6.000       1813.    
     MULTIPLE LAYERS AND PROPORTIONS :    2, 0.17       3, 0.83
  1732 2088-66-48      66    48.00       1811.    
     MULTIPLE LAYERS AND PROPORTIONS :    2, 0.17       3, 0.83
  1733 2088-71-6       71    6.000       1818.    
  1734 2088-71-365     71    365.0       1819.    
  1735 2620-61-53      61    53.00       1751.    
  1736 2620-66-28      66    28.00       1754.    
  1737 2630-1-86        1    86.00       1889.    
 Observation within a steady-state time step has been moved to the end of the time step.
  1738 2615-21-353     21    353.0       1856.    
  1739 2615-27-20      27    20.00       1833.    
  1740 2615-36-64      36    64.00       1802.    
  1741 2615-42-350     42    350.0       1766.    
  1742 2618-56-23      56    23.00       1750.    
  1743 2618-61-53      61    53.00       1751.    
  1744 2618-66-28      66    28.00       1753.    
  1745 2616-1-109       1    109.0       1890.    
 Observation within a steady-state time step has been moved to the end of the time step.
  1746 2616-7-10        7   10.000       1889.    
  1747 2616-10-319     10    319.0       1878.    
  1748 2607-56-23      56    23.00       1754.    
  1749 2607-61-53      61    53.00       1751.    
  1750 2607-66-28      66    28.00       1752.    
  1751 2578-2-305       2    305.0       1903.    
  1752 2582-1-105       1    105.0       1898.    
 Observation within a steady-state time step has been moved to the end of the time step.
  1753 2577-56-23      56    23.00       1757.    
  1754 2577-61-53      61    53.00       1758.    
  1755 2577-66-28      66    28.00       1760.    
  1756 2573-56-27      56    27.00       1759.    
  1757 2553-33-188     33    188.0       1780.    
  1758 2553-56-27      56    27.00       1769.    
  1759 2574-1-107       1    107.0       1894.    
 Observation within a steady-state time step has been moved to the end of the time step.
  1760 2580-1-109       1    109.0       1894.    
 Observation within a steady-state time step has been moved to the end of the time step.
  1761 2571-21-354     21    354.0       1857.    
  1762 2498-37-34      37    34.00       1812.    
  1763 2498-42-350     42    350.0       1797.    
  1764 2519-56-23      56    23.00       1776.    
  1765 2507-48-300     48    300.0       1781.    
  1766 2507-55-318     55    318.0       1786.    
  1767 2507-60-313     60    313.0       1786.    
  1768 2507-65-364     65    364.0       1792.    
  1769 2507-71-350     71    350.0       1807.    
  1770 2508-48-300     48    300.0       1780.    
  1771 2508-55-318     55    318.0       1782.    
  1772 2508-60-313     60    313.0       1782.    
  1773 2508-65-364     65    364.0       1788.    
  1774 2508-71-350     71    350.0       1808.    
  1775 2448-56-25      56    25.00       1795.    
  1776 2448-61-52      61    52.00       1799.    
  1777 2448-66-20      66    20.00       1803.    
  1778 2311-56-23      56    23.00       1817.    
  1779 2311-61-53      61    53.00       1822.    
  1780 2311-66-28      66    28.00       1823.    
  1781 2084-2-305       2    305.0       1948.    
  1782 2099-42-352     42    352.0       1819.    
     MULTIPLE LAYERS AND PROPORTIONS :    2, 0.43       3, 0.57
  1783 2099-48-365     48    365.0       1824.    
     MULTIPLE LAYERS AND PROPORTIONS :    2, 0.43       3, 0.57
  1784 2099-55-354     55    354.0       1826.    
     MULTIPLE LAYERS AND PROPORTIONS :    2, 0.43       3, 0.57
  1785 2099-61-7       61    7.000       1837.    
     MULTIPLE LAYERS AND PROPORTIONS :    2, 0.43       3, 0.57
  1786 2099-65-344     65    344.0       1824.    
     MULTIPLE LAYERS AND PROPORTIONS :    2, 0.43       3, 0.57
  1787 2099-71-365     71    365.0       1840.    
     MULTIPLE LAYERS AND PROPORTIONS :    2, 0.43       3, 0.57
  1788 2087-71-365     71    365.0       1825.    
  1789 2110-71-365     71    365.0       1844.    
  1790 2040-65-364     65    364.0       1850.    
  1791 2040-71-365     71    365.0       1864.    
  1792 2034-65-364     65    364.0       1830.    
  1793 2034-71-12      71    12.00       1876.    
  1794 2034-71-365     71    365.0       1838.    
  1795 2009-71-8       71    8.000       1870.    
  1796 2009-71-365     71    365.0       1858.    
  1797 2008-71-8       71    8.000       1845.    
  1798 2008-71-365     71    365.0       1838.    
  1799 1923-16-315     16    315.0       1894.    
     MULTIPLE LAYERS AND PROPORTIONS :    2, 0.40       3, 0.60
  1800 1923-22-38      22    38.00       1884.    
     MULTIPLE LAYERS AND PROPORTIONS :    2, 0.40       3, 0.60
  1801 1923-27-24      27    24.00       1863.    
     MULTIPLE LAYERS AND PROPORTIONS :    2, 0.40       3, 0.60
  1802 1923-32-85      32    85.00       1840.    
     MULTIPLE LAYERS AND PROPORTIONS :    2, 0.40       3, 0.60
  1803 1923-36-1       36   1.0000       1840.    
     MULTIPLE LAYERS AND PROPORTIONS :    2, 0.40       3, 0.60
  1804 1923-42-352     42    352.0       1841.    
     MULTIPLE LAYERS AND PROPORTIONS :    2, 0.40       3, 0.60
  1805 1923-48-348     48    348.0       1841.    
     MULTIPLE LAYERS AND PROPORTIONS :    2, 0.40       3, 0.60
  1806 1923-55-354     55    354.0       1840.    
     MULTIPLE LAYERS AND PROPORTIONS :    2, 0.40       3, 0.60
  1807 1923-60-323     60    323.0       1856.    
     MULTIPLE LAYERS AND PROPORTIONS :    2, 0.40       3, 0.60
  1808 1923-65-343     65    343.0       1828.    
     MULTIPLE LAYERS AND PROPORTIONS :    2, 0.40       3, 0.60
  1809 1923-71-8       71    8.000       1848.    
     MULTIPLE LAYERS AND PROPORTIONS :    2, 0.40       3, 0.60
  1810 1923-71-365     71    365.0       1844.    
     MULTIPLE LAYERS AND PROPORTIONS :    2, 0.40       3, 0.60
  1811 1914-55-354     55    354.0       1840.    
  1812 1914-61-7       61    7.000       1855.    
  1813 1914-71-8       71    8.000       1848.    
  1814 1919-71-8       71    8.000       1853.    
  1815 1914-71-365     71    365.0       1844.    
  1816 1919-71-365     71    365.0       1847.    
  1817 1938-65-364     65    364.0       1848.    
  1818 1960-65-364     65    364.0       1842.    
  1819 1922-12-171     12    171.0       1950.    
     MULTIPLE LAYERS AND PROPORTIONS :    2, 0.39       3, 0.61
  1820 1922-42-352     42    352.0       1846.    
     MULTIPLE LAYERS AND PROPORTIONS :    2, 0.39       3, 0.61
  1821 1922-48-349     48    349.0       1847.    
     MULTIPLE LAYERS AND PROPORTIONS :    2, 0.39       3, 0.61
  1822 1922-55-354     55    354.0       1846.    
     MULTIPLE LAYERS AND PROPORTIONS :    2, 0.39       3, 0.61
  1823 1922-61-7       61    7.000       1873.    
     MULTIPLE LAYERS AND PROPORTIONS :    2, 0.39       3, 0.61
  1824 1922-71-8       71    8.000       1884.    
     MULTIPLE LAYERS AND PROPORTIONS :    2, 0.39       3, 0.61
  1825 1922-71-365     71    365.0       1872.    
  1826 1918-10-108     10    108.0       1955.    
  1827 1918-66-32      66    32.00       1850.    
  1828 1918-71-8       71    8.000       1881.    
  1829 1918-71-365     71    365.0       1866.    
  1830 1959-71-8       71    8.000       1888.    
  1831 1959-71-365     71    365.0       1873.    
  1832 1944-71-365     71    365.0       1882.    
  1833 1988-35-4       35    4.000       1872.    
     MULTIPLE LAYERS AND PROPORTIONS :    2, 0.38       3, 0.62
  1834 1908-56-18      56    18.00       1862.    
  1835 1908-66-18      66    18.00       1848.    
  1836 2638-33-46      33    46.00       2108.    
  1837 2648-35-95      35    95.00       2092.    
     MULTIPLE LAYERS AND PROPORTIONS :    1, 0.27       2, 0.73
  1838 2627-48-336     48    336.0       2088.    
     MULTIPLE LAYERS AND PROPORTIONS :    1, 0.31       2, 0.69
  1839 2619-2-1         2   1.0000       2145.    
     MULTIPLE LAYERS AND PROPORTIONS :    1, 0.73       2, 0.27
  1840 2642-12-43      12    43.00       2100.    
  1841 2649-17-23      17    23.00       2099.    
     MULTIPLE LAYERS AND PROPORTIONS :    1, 0.55       2, 0.45
  1842 2649-22-20      22    20.00       2098.    
     MULTIPLE LAYERS AND PROPORTIONS :    1, 0.55       2, 0.45
  1843 2649-42-363     42    363.0       2087.    
     MULTIPLE LAYERS AND PROPORTIONS :    1, 0.55       2, 0.45
  1844 2649-48-336     48    336.0       2084.    
     MULTIPLE LAYERS AND PROPORTIONS :    1, 0.55       2, 0.45
  1845 2649-56-20      56    20.00       2111.    
     MULTIPLE LAYERS AND PROPORTIONS :    1, 0.55       2, 0.45
  1846 2649-61-55      61    55.00       2081.    
     MULTIPLE LAYERS AND PROPORTIONS :    1, 0.55       2, 0.45
  1847 2628-1-365       1    365.0       2129.    
 Observation within a steady-state time step has been moved to the end of the time step.
  1848 2650-71-350     71    350.0       2071.    
  1849 2655-42-362     42    362.0       2084.    
  1850 2655-48-362     48    362.0       2083.    
  1851 2655-55-343     55    343.0       2093.    
  1852 2655-61-40      61    40.00       2080.    
  1853 2655-66-55      66    55.00       2057.    
  1854 2655-71-350     71    350.0       2061.    
  1855 2604-61-55      61    55.00       2078.    
  1856 2626-22-20      22    20.00       2106.    
     MULTIPLE LAYERS AND PROPORTIONS :    1, 0.37       2, 0.48       3, 0.15
  1857 2626-32-42      32    42.00       2110.    
     MULTIPLE LAYERS AND PROPORTIONS :    1, 0.37       2, 0.48       3, 0.15
  1858 2623-8-279       8    279.0       2109.    
  1859 2623-12-32      12    32.00       2110.    
  1860 2623-17-22      17    22.00       2109.    
  1861 2623-22-1       22   1.0000       2104.    
  1862 2623-27-34      27    34.00       2113.    
  1863 2608-12-43      12    43.00       2113.    
  1864 2608-17-23      17    23.00       2111.    
  1865 2608-22-20      22    20.00       2105.    
  1866 2608-32-42      32    42.00       2110.    
  1867 2629-3-217       3    217.0       2124.    
  1868 2606-56-26      56    26.00       2123.    
  1869 2606-61-55      61    55.00       2120.    
  1870 2606-66-20      66    20.00       2114.    
  1871 2592-12-43      12    43.00       2137.    
     MULTIPLE LAYERS AND PROPORTIONS :    1, 0.71       2, 0.29
  1872 2592-17-23      17    23.00       2133.    
     MULTIPLE LAYERS AND PROPORTIONS :    1, 0.71       2, 0.29
  1873 2592-22-23      22    23.00       2125.    
     MULTIPLE LAYERS AND PROPORTIONS :    1, 0.71       2, 0.29
  1874 2592-42-364     42    364.0       2123.    
     MULTIPLE LAYERS AND PROPORTIONS :    1, 0.71       2, 0.29
  1875 2592-48-336     48    336.0       2115.    
     MULTIPLE LAYERS AND PROPORTIONS :    1, 0.71       2, 0.29
  1876 2592-56-20      56    20.00       2137.    
     MULTIPLE LAYERS AND PROPORTIONS :    1, 0.71       2, 0.29
  1877 2592-61-55      61    55.00       2113.    
     MULTIPLE LAYERS AND PROPORTIONS :    1, 0.71       2, 0.29
  1878 2603-27-15      27    15.00       2121.    
     MULTIPLE LAYERS AND PROPORTIONS :    1, 0.75       2, 0.25
  1879 2603-42-362     42    362.0       2104.    
     MULTIPLE LAYERS AND PROPORTIONS :    1, 0.75       2, 0.25
  1880 2603-48-336     48    336.0       2101.    
     MULTIPLE LAYERS AND PROPORTIONS :    1, 0.75       2, 0.25
  1881 2603-55-343     55    343.0       2114.    
     MULTIPLE LAYERS AND PROPORTIONS :    1, 0.75       2, 0.25
  1882 2603-61-40      61    40.00       2099.    
     MULTIPLE LAYERS AND PROPORTIONS :    1, 0.75       2, 0.25
  1883 2603-65-343     65    343.0       2064.    
     MULTIPLE LAYERS AND PROPORTIONS :    1, 0.75       2, 0.25
  1884 2603-71-47      71    47.00       2078.    
     MULTIPLE LAYERS AND PROPORTIONS :    1, 0.75       2, 0.25
  1885 2603-71-350     71    350.0       2074.    
     MULTIPLE LAYERS AND PROPORTIONS :    1, 0.75       2, 0.25
  1886 2593-1-365       1    365.0       2142.    
 Observation within a steady-state time step has been moved to the end of the time step.
  1887 2558-22-23      22    23.00       2120.    
     MULTIPLE LAYERS AND PROPORTIONS :    1, 0.23       2, 0.77
  1888 2558-27-35      27    35.00       2127.    
     MULTIPLE LAYERS AND PROPORTIONS :    1, 0.23       2, 0.77
  1889 2558-42-362     42    362.0       2113.    
     MULTIPLE LAYERS AND PROPORTIONS :    1, 0.23       2, 0.77
  1890 2558-48-362     48    362.0       2109.    
     MULTIPLE LAYERS AND PROPORTIONS :    1, 0.23       2, 0.77
  1891 2558-55-343     55    343.0       2119.    
     MULTIPLE LAYERS AND PROPORTIONS :    1, 0.23       2, 0.77
  1892 2558-61-40      61    40.00       2106.    
     MULTIPLE LAYERS AND PROPORTIONS :    1, 0.23       2, 0.77
  1893 2651-42-356     42    356.0       2169.    
  1894 2632-66-33      66    33.00       2145.    
  1895 2632-71-63      71    63.00       2134.    
  1896 2644-48-345     48    345.0       2173.    
  1897 2644-71-63      71    63.00       2134.    
  1898 2645-42-356     42    356.0       2172.    
  1899 2645-48-345     48    345.0       2158.    
  1900 2645-66-33      66    33.00       2144.    
  1901 2645-71-63      71    63.00       2131.    
  1902 2624-71-63      71    63.00       2130.    
  1903 2609-42-365     42    365.0       2143.    
     MULTIPLE LAYERS AND PROPORTIONS :    1, 0.91       2, 0.09
  1904 2609-48-338     48    338.0       2138.    
     MULTIPLE LAYERS AND PROPORTIONS :    1, 0.91       2, 0.09
  1905 2609-56-24      56    24.00       2128.    
     MULTIPLE LAYERS AND PROPORTIONS :    1, 0.91       2, 0.09
  1906 2609-61-54      61    54.00       2121.    
     MULTIPLE LAYERS AND PROPORTIONS :    1, 0.91       2, 0.09
  1907 2609-66-26      66    26.00       2103.    
     MULTIPLE LAYERS AND PROPORTIONS :    1, 0.91       2, 0.09
  1908 2609-71-62      71    62.00       2095.    
     MULTIPLE LAYERS AND PROPORTIONS :    1, 0.91       2, 0.09
  1909 2631-56-24      56    24.00       2101.    
  1910 2631-61-54      61    54.00       2085.    
  1911 2631-66-33      66    33.00       2058.    
  1912 2652-17-24      17    24.00       2121.    
     MULTIPLE LAYERS AND PROPORTIONS :    1, 0.25       2, 0.75
  1913 2652-22-19      22    19.00       2113.    
     MULTIPLE LAYERS AND PROPORTIONS :    1, 0.25       2, 0.75
  1914 2652-27-33      27    33.00       2114.    
     MULTIPLE LAYERS AND PROPORTIONS :    1, 0.25       2, 0.75
  1915 2652-42-362     42    362.0       2099.    
     MULTIPLE LAYERS AND PROPORTIONS :    1, 0.25       2, 0.75
  1916 2634-66-19      66    19.00       2059.    
  1917 2633-56-23      56    23.00       2109.    
  1918 2647-1-51        1    51.00       2132.    
 Observation within a steady-state time step has been moved to the end of the time step.
  1919 2613-56-26      56    26.00       2121.    
     MULTIPLE LAYERS AND PROPORTIONS :    1, 0.28       2, 0.72
  1920 2622-11-34      11    34.00       2132.    
     MULTIPLE LAYERS AND PROPORTIONS :    1, 0.57       2, 0.43
  1921 2622-17-3       17    3.000       2120.    
     MULTIPLE LAYERS AND PROPORTIONS :    1, 0.57       2, 0.43
  1922 2622-22-25      22    25.00       2119.    
     MULTIPLE LAYERS AND PROPORTIONS :    1, 0.57       2, 0.43
  1923 2622-27-11      27    11.00       2120.    
     MULTIPLE LAYERS AND PROPORTIONS :    1, 0.57       2, 0.43
  1924 2622-32-46      32    46.00       2113.    
     MULTIPLE LAYERS AND PROPORTIONS :    1, 0.57       2, 0.43
  1925 2625-42-362     42    362.0       2107.    
     MULTIPLE LAYERS AND PROPORTIONS :    1, 0.30       2, 0.70
  1926 2605-42-362     42    362.0       2114.    
  1927 2605-48-362     48    362.0       2110.    
  1928 2605-55-343     55    343.0       2118.    
  1929 2605-61-38      61    38.00       2104.    
  1930 2605-66-49      66    49.00       2073.    
  1931 2605-71-40      71    40.00       2077.    
  1932 2605-71-350     71    350.0       2076.    
  1933 2570-8-37        8    37.00       2157.    
  1934 2570-12-46      12    46.00       2145.    
  1935 2570-17-24      17    24.00       2139.    
  1936 2570-22-25      22    25.00       2125.    
  1937 2560-22-25      22    25.00       2127.    
     MULTIPLE LAYERS AND PROPORTIONS :    1, 0.11       2, 0.61       3, 0.28
  1938 2560-27-34      27    34.00       2126.    
     MULTIPLE LAYERS AND PROPORTIONS :    1, 0.11       2, 0.61       3, 0.28
  1939 2560-32-36      32    36.00       2126.    
     MULTIPLE LAYERS AND PROPORTIONS :    1, 0.11       2, 0.61       3, 0.28
  1940 2560-42-363     42    363.0       2116.    
     MULTIPLE LAYERS AND PROPORTIONS :    1, 0.11       2, 0.61       3, 0.28
  1941 2545-56-20      56    20.00       2135.    
  1942 2544-1-50        1    50.00       2178.    
 Observation within a steady-state time step has been moved to the end of the time step.
  1943 2544-6-39        6    39.00       2167.    
  1944 2576-16-25      16    25.00       2150.    
  1945 2576-22-25      22    25.00       2142.    
  1946 2576-26-28      26    28.00       2140.    
  1947 2581-66-26      66    26.00       2077.    
  1948 2581-71-62      71    62.00       2076.    
  1949 2600-17-24      17    24.00       2133.    
     MULTIPLE LAYERS AND PROPORTIONS :    1, 0.54       2, 0.46
  1950 2600-22-25      22    25.00       2127.    
     MULTIPLE LAYERS AND PROPORTIONS :    1, 0.54       2, 0.46
  1951 2600-27-54      27    54.00       2129.    
     MULTIPLE LAYERS AND PROPORTIONS :    1, 0.54       2, 0.46
  1952 2600-32-36      32    36.00       2120.    
     MULTIPLE LAYERS AND PROPORTIONS :    1, 0.54       2, 0.46
  1953 2600-38-32      38    32.00       2112.    
     MULTIPLE LAYERS AND PROPORTIONS :    1, 0.54       2, 0.46
  1954 2600-39-32      39    32.00       2112.    
     MULTIPLE LAYERS AND PROPORTIONS :    1, 0.54       2, 0.46
  1955 2600-48-362     48    362.0       2111.    
     MULTIPLE LAYERS AND PROPORTIONS :    1, 0.54       2, 0.46
  1956 2600-55-343     55    343.0       2114.    
     MULTIPLE LAYERS AND PROPORTIONS :    1, 0.54       2, 0.46
  1957 2600-61-40      61    40.00       2102.    
     MULTIPLE LAYERS AND PROPORTIONS :    1, 0.54       2, 0.46
  1958 2600-66-49      66    49.00       2085.    
     MULTIPLE LAYERS AND PROPORTIONS :    1, 0.54       2, 0.46
  1959 2600-71-40      71    40.00       2075.    
     MULTIPLE LAYERS AND PROPORTIONS :    1, 0.54       2, 0.46
  1960 2600-71-350     71    350.0       2092.    
     MULTIPLE LAYERS AND PROPORTIONS :    1, 0.54       2, 0.46
  1961 2566-66-26      66    26.00       2067.    
  1962 2562-48-335     48    335.0       2109.    
     MULTIPLE LAYERS AND PROPORTIONS :    1, 0.18       2, 0.82
  1963 2562-56-25      56    25.00       2124.    
     MULTIPLE LAYERS AND PROPORTIONS :    1, 0.18       2, 0.82
  1964 2543-1-2         1    2.000       2177.    
 Observation within a steady-state time step has been moved to the end of the time step.
  1965 2546-7-316       7    316.0       2175.    
  1966 2546-12-46      12    46.00       2162.    
  1967 2546-17-33      17    33.00       2154.    
  1968 2546-22-25      22    25.00       2145.    
  1969 2546-27-11      27    11.00       2162.    
  1970 2546-32-46      32    46.00       2144.    
  1971 2546-38-46      38    46.00       2137.    
  1972 2546-39-32      39    32.00       2139.    
  1973 2546-56-25      56    25.00       2163.    
  1974 2541-17-3       17    3.000       2147.    
  1975 2541-27-11      27    11.00       2163.    
  1976 2548-42-362     42    362.0       2126.    
  1977 2548-48-362     48    362.0       2120.    
  1978 2548-55-347     55    347.0       2124.    
  1979 2548-60-362     60    362.0       2111.    
  1980 2547-66-48      66    48.00       2087.    
  1981 2547-71-12      71    12.00       2084.    
  1982 2547-71-350     71    350.0       2082.    
  1983 2551-42-352     42    352.0       2126.    
     MULTIPLE LAYERS AND PROPORTIONS :    1, 0.12       2, 0.88
  1984 2551-56-24      56    24.00       2127.    
     MULTIPLE LAYERS AND PROPORTIONS :    1, 0.12       2, 0.88
  1985 2551-66-26      66    26.00       2085.    
     MULTIPLE LAYERS AND PROPORTIONS :    1, 0.12       2, 0.88
  1986 2550-42-362     42    362.0       2130.    
  1987 2550-56-24      56    24.00       2122.    
  1988 2550-61-54      61    54.00       2107.    
  1989 2550-66-26      66    26.00       2085.    
  1990 2542-22-25      22    25.00       2156.    
     MULTIPLE LAYERS AND PROPORTIONS :    1, 0.57       2, 0.43
  1991 2542-27-54      27    54.00       2165.    
     MULTIPLE LAYERS AND PROPORTIONS :    1, 0.57       2, 0.43
  1992 2542-66-26      66    26.00       2089.    
     MULTIPLE LAYERS AND PROPORTIONS :    1, 0.57       2, 0.43
  1993 2552-56-24      56    24.00       2120.    
  1994 2552-61-54      61    54.00       2109.    
  1995 2552-66-33      66    33.00       2092.    
  1996 2552-71-62      71    62.00       2083.    
  1997 2598-1-274       1    274.0       2210.    
 Observation within a steady-state time step has been moved to the end of the time step.
  1998 2598-6-284       6    284.0       2205.    
  1999 2598-11-62      11    62.00       2197.    
  2000 2584-12-325     12    325.0       2205.    
  2001 2584-17-3       17    3.000       2190.    
  2002 2584-22-31      22    31.00       2181.    
  2003 2584-27-11      27    11.00       2173.    
  2004 2540-48-357     48    357.0       2153.    
  2005 2540-55-343     55    343.0       2142.    
  2006 2540-61-38      61    38.00       2135.    
  2007 2540-66-59      66    59.00       2125.    
  2008 2540-71-40      71    40.00       2122.    
  2009 2540-71-365     71    365.0       2122.    
  2010 2597-42-335     42    335.0       2153.    
  2011 2597-48-357     48    357.0       2151.    
  2012 2597-55-343     55    343.0       2141.    
  2013 2597-61-38      61    38.00       2136.    
  2014 2597-66-59      66    59.00       2129.    
  2015 2597-71-40      71    40.00       2121.    
  2016 2597-71-365     71    365.0       2119.    
  2017 2565-48-342     48    342.0       2155.    
  2018 2575-55-343     55    343.0       2203.    
  2019 2539-11-34      11    34.00       2244.    
  2020 2539-22-79      22    79.00       2212.    
  2021 2539-32-46      32    46.00       2200.    
  2022 2539-37-34      37    34.00       2187.    
  2023 2539-48-337     48    337.0       2174.    
  2024 2539-60-321     60    321.0       2158.    
  2025 2539-65-299     65    299.0       2144.    
  2026 2539-71-13      71    13.00       2144.    
  2027 2539-71-365     71    365.0       2143.    
  2028 2478-61-31      61    31.00       2169.    
  2029 2478-66-1       66   1.0000       2150.    
  2030 2478-71-41      71    41.00       2148.    
  2031 2478-71-365     71    365.0       2152.    
  2032 2474-16-298     16    298.0       2273.    
  2033 2474-22-32      22    32.00       2270.    
  2034 2474-27-10      27   10.000       2263.    
  2035 2531-42-362     42    362.0       2157.    
  2036 2531-48-357     48    357.0       2153.    
  2037 2531-55-343     55    343.0       2141.    
  2038 2531-61-38      61    38.00       2134.    
  2039 2531-66-59      66    59.00       2123.    
  2040 2531-71-40      71    40.00       2121.    
  2041 2531-71-365     71    365.0       2121.    
  2042 2504-71-63      71    63.00       2155.    
  2043 2520-71-62      71    62.00       2132.    
  2044 2482-42-362     42    362.0       2162.    
     MULTIPLE LAYERS AND PROPORTIONS :    1, 0.18       2, 0.82
  2045 2482-48-362     48    362.0       2150.    
     MULTIPLE LAYERS AND PROPORTIONS :    1, 0.18       2, 0.82
  2046 2482-55-343     55    343.0       2143.    
     MULTIPLE LAYERS AND PROPORTIONS :    1, 0.18       2, 0.82
  2047 2482-61-40      61    40.00       2132.    
     MULTIPLE LAYERS AND PROPORTIONS :    1, 0.18       2, 0.82
  2048 2482-66-45      66    45.00       2121.    
     MULTIPLE LAYERS AND PROPORTIONS :    1, 0.18       2, 0.82
  2049 2482-71-26      71    26.00       2126.    
     MULTIPLE LAYERS AND PROPORTIONS :    1, 0.18       2, 0.82
  2050 2482-71-365     71    365.0       2127.    
     MULTIPLE LAYERS AND PROPORTIONS :    1, 0.18       2, 0.82
  2051 2470-55-343     55    343.0       2152.    
  2052 2470-66-45      66    45.00       2131.    
  2053 2470-71-41      71    41.00       2133.    
  2054 2470-71-365     71    365.0       2136.    
  2055 2473-55-343     55    343.0       2154.    
  2056 2476-48-362     48    362.0       2155.    
  2057 2476-55-343     55    343.0       2151.    
  2058 2476-61-32      61    32.00       2143.    
  2059 2476-66-45      66    45.00       2142.    
  2060 2476-71-41      71    41.00       2132.    
  2061 2476-71-365     71    365.0       2135.    
  2062 2523-37-1       37   1.0000       2161.    
  2063 2512-71-62      71    62.00       2101.    
  2064 2513-17-24      17    24.00       2182.    
  2065 2513-22-25      22    25.00       2173.    
  2066 2513-26-362     26    362.0       2168.    
  2067 2487-42-355     42    355.0       2146.    
  2068 2467-12-46      12    46.00       2194.    
  2069 2467-17-3       17    3.000       2183.    
  2070 2467-22-25      22    25.00       2173.    
  2071 2467-27-54      27    54.00       2176.    
  2072 2467-32-46      32    46.00       2155.    
  2073 2467-38-32      38    32.00       2148.    
  2074 2466-2-128       2    128.0       2235.    
  2075 2496-42-335     42    335.0       2150.    
  2076 2496-48-362     48    362.0       2143.    
  2077 2496-55-343     55    343.0       2132.    
  2078 2496-61-32      61    32.00       2123.    
  2079 2496-66-45      66    45.00       2109.    
  2080 2496-71-40      71    40.00       2113.    
  2081 2496-71-365     71    365.0       2113.    
  2082 2486-42-362     42    362.0       2150.    
  2083 2486-48-362     48    362.0       2143.    
  2084 2486-55-343     55    343.0       2133.    
  2085 2486-60-344     60    344.0       2117.    
  2086 2486-66-45      66    45.00       2110.    
  2087 2486-71-26      71    26.00       2111.    
  2088 2486-71-365     71    365.0       2115.    
  2089 2499-33-95      33    95.00       2163.    
     MULTIPLE LAYERS AND PROPORTIONS :    1, 0.52       2, 0.48
  2090 2493-66-33      66    33.00       2109.    
  2091 2490-66-45      66    45.00       2105.    
  2092 2490-71-26      71    26.00       2099.    
  2093 2490-71-365     71    365.0       2101.    
  2094 2538-17-24      17    24.00       2177.    
     MULTIPLE LAYERS AND PROPORTIONS :    1, 0.25       2, 0.75
  2095 2538-22-25      22    25.00       2168.    
     MULTIPLE LAYERS AND PROPORTIONS :    1, 0.25       2, 0.75
  2096 2538-27-47      27    47.00       2170.    
     MULTIPLE LAYERS AND PROPORTIONS :    1, 0.25       2, 0.75
  2097 2538-32-46      32    46.00       2157.    
     MULTIPLE LAYERS AND PROPORTIONS :    1, 0.25       2, 0.75
  2098 2538-37-34      37    34.00       2146.    
     MULTIPLE LAYERS AND PROPORTIONS :    1, 0.25       2, 0.75
  2099 2538-42-363     42    363.0       2138.    
     MULTIPLE LAYERS AND PROPORTIONS :    1, 0.25       2, 0.75
  2100 2538-48-338     48    338.0       2134.    
     MULTIPLE LAYERS AND PROPORTIONS :    1, 0.25       2, 0.75
  2101 2538-56-24      56    24.00       2127.    
     MULTIPLE LAYERS AND PROPORTIONS :    1, 0.25       2, 0.75
  2102 2538-60-321     60    321.0       2116.    
     MULTIPLE LAYERS AND PROPORTIONS :    1, 0.25       2, 0.75
  2103 2534-56-24      56    24.00       2132.    
  2104 2534-66-19      66    19.00       2100.    
  2105 2532-56-24      56    24.00       2125.    
  2106 2500-71-62      71    62.00       2105.    
  2107 2517-48-362     48    362.0       2129.    
  2108 2517-55-343     55    343.0       2127.    
  2109 2517-61-32      61    32.00       2115.    
  2110 2517-66-40      66    40.00       2094.    
  2111 2517-71-350     71    350.0       2088.    
  2112 2514-17-3       17    3.000       2169.    
  2113 2475-22-25      22    25.00       2153.    
     MULTIPLE LAYERS AND PROPORTIONS :    1, 0.31       2, 0.69
  2114 2475-27-11      27    11.00       2143.    
     MULTIPLE LAYERS AND PROPORTIONS :    1, 0.31       2, 0.69
  2115 2475-43-32      43    32.00       2135.    
     MULTIPLE LAYERS AND PROPORTIONS :    1, 0.31       2, 0.69
  2116 2475-48-362     48    362.0       2133.    
     MULTIPLE LAYERS AND PROPORTIONS :    1, 0.31       2, 0.69
  2117 2475-55-347     55    347.0       2130.    
     MULTIPLE LAYERS AND PROPORTIONS :    1, 0.31       2, 0.69
  2118 2475-60-362     60    362.0       2121.    
     MULTIPLE LAYERS AND PROPORTIONS :    1, 0.31       2, 0.69
  2119 2475-66-1       66   1.0000       2097.    
     MULTIPLE LAYERS AND PROPORTIONS :    1, 0.31       2, 0.69
  2120 2475-71-350     71    350.0       2090.    
     MULTIPLE LAYERS AND PROPORTIONS :    1, 0.31       2, 0.69
  2121 2480-22-25      22    25.00       2178.    
     MULTIPLE LAYERS AND PROPORTIONS :    1, 0.42       2, 0.58
  2122 2480-42-362     42    362.0       2140.    
     MULTIPLE LAYERS AND PROPORTIONS :    1, 0.42       2, 0.58
  2123 2480-48-362     48    362.0       2136.    
     MULTIPLE LAYERS AND PROPORTIONS :    1, 0.42       2, 0.58
  2124 2480-56-5       56    5.000       2140.    
     MULTIPLE LAYERS AND PROPORTIONS :    1, 0.42       2, 0.58
  2125 2480-61-5       61    5.000       2134.    
     MULTIPLE LAYERS AND PROPORTIONS :    1, 0.42       2, 0.58
  2126 2480-66-40      66    40.00       2106.    
     MULTIPLE LAYERS AND PROPORTIONS :    1, 0.42       2, 0.58
  2127 2480-71-26      71    26.00       2096.    
     MULTIPLE LAYERS AND PROPORTIONS :    1, 0.42       2, 0.58
  2128 2480-71-350     71    350.0       2098.    
     MULTIPLE LAYERS AND PROPORTIONS :    1, 0.42       2, 0.58
  2129 2471-17-3       17    3.000       2179.    
  2130 2471-27-11      27    11.00       2163.    
  2131 2536-48-362     48    362.0       2124.    
     MULTIPLE LAYERS AND PROPORTIONS :    1, 0.43       2, 0.57
  2132 2536-55-347     55    347.0       2125.    
     MULTIPLE LAYERS AND PROPORTIONS :    1, 0.43       2, 0.57
  2133 2536-60-362     60    362.0       2113.    
     MULTIPLE LAYERS AND PROPORTIONS :    1, 0.43       2, 0.57
  2134 2536-66-40      66    40.00       2091.    
     MULTIPLE LAYERS AND PROPORTIONS :    1, 0.43       2, 0.57
  2135 2536-71-350     71    350.0       2085.    
     MULTIPLE LAYERS AND PROPORTIONS :    1, 0.43       2, 0.57
  2136 2528-42-362     42    362.0       2129.    
     MULTIPLE LAYERS AND PROPORTIONS :    1, 0.42       2, 0.58
  2137 2528-48-362     48    362.0       2123.    
     MULTIPLE LAYERS AND PROPORTIONS :    1, 0.42       2, 0.58
  2138 2528-55-347     55    347.0       2126.    
     MULTIPLE LAYERS AND PROPORTIONS :    1, 0.42       2, 0.58
  2139 2528-60-362     60    362.0       2113.    
     MULTIPLE LAYERS AND PROPORTIONS :    1, 0.42       2, 0.58
  2140 2528-66-48      66    48.00       2088.    
     MULTIPLE LAYERS AND PROPORTIONS :    1, 0.42       2, 0.58
  2141 2528-71-350     71    350.0       2082.    
     MULTIPLE LAYERS AND PROPORTIONS :    1, 0.42       2, 0.58
  2142 2509-17-3       17    3.000       2148.    
  2143 2509-31-351     31    351.0       2138.    
  2144 2521-42-363     42    363.0       2132.    
     MULTIPLE LAYERS AND PROPORTIONS :    1, 0.28       2, 0.72
  2145 2521-48-335     48    335.0       2126.    
     MULTIPLE LAYERS AND PROPORTIONS :    1, 0.28       2, 0.72
  2146 2521-56-25      56    25.00       2133.    
     MULTIPLE LAYERS AND PROPORTIONS :    1, 0.28       2, 0.72
  2147 2521-61-56      61    56.00       2117.    
     MULTIPLE LAYERS AND PROPORTIONS :    1, 0.28       2, 0.72
  2148 2505-56-25      56    25.00       2133.    
  2149 2506-48-335     48    335.0       2129.    
     MULTIPLE LAYERS AND PROPORTIONS :    1, 0.11       2, 0.89
  2150 2506-56-25      56    25.00       2133.    
     MULTIPLE LAYERS AND PROPORTIONS :    1, 0.11       2, 0.89
  2151 2506-61-56      61    56.00       2082.    
     MULTIPLE LAYERS AND PROPORTIONS :    1, 0.11       2, 0.89
  2152 2506-66-18      66    18.00       2092.    
     MULTIPLE LAYERS AND PROPORTIONS :    1, 0.11       2, 0.89
  2153 2506-71-11      71    11.00       2089.    
     MULTIPLE LAYERS AND PROPORTIONS :    1, 0.11       2, 0.89
  2154 2506-71-365     71    365.0       2089.    
     MULTIPLE LAYERS AND PROPORTIONS :    1, 0.11       2, 0.89
  2155 2488-1-357       1    357.0       2201.    
 Observation within a steady-state time step has been moved to the end of the time step.
  2156 2488-7-316       7    316.0       2188.    
  2157 2488-10-283     10    283.0       2174.    
  2158 2488-17-33      17    33.00       2162.    
  2159 2488-22-25      22    25.00       2152.    
  2160 2488-27-47      27    47.00       2156.    
  2161 2488-37-27      37    27.00       2136.    
  2162 2472-1-357       1    357.0       2208.    
 Observation within a steady-state time step has been moved to the end of the time step.
  2163 2472-8-36        8    36.00       2189.    
  2164 2472-12-50      12    50.00       2174.    
  2165 2472-17-33      17    33.00       2162.    
  2166 2537-22-25      22    25.00       2136.    
  2167 2537-27-47      27    47.00       2145.    
  2168 2537-32-46      32    46.00       2140.    
  2169 2537-37-34      37    34.00       2138.    
  2170 2537-42-363     42    363.0       2125.    
  2171 2537-56-20      56    20.00       2135.    
  2172 2497-42-363     42    363.0       2131.    
  2173 2497-48-337     48    337.0       2126.    
  2174 2497-56-20      56    20.00       2135.    
  2175 2434-48-362     48    362.0       2131.    
  2176 2434-55-346     55    346.0       2132.    
  2177 2434-61-6       61    6.000       2124.    
  2178 2434-66-48      66    48.00       2095.    
  2179 2434-71-12      71    12.00       2089.    
  2180 2434-71-350     71    350.0       2088.    
  2181 2355-42-362     42    362.0       2138.    
     MULTIPLE LAYERS AND PROPORTIONS :    2, 0.78       3, 0.22
  2182 2355-48-362     48    362.0       2135.    
     MULTIPLE LAYERS AND PROPORTIONS :    2, 0.78       3, 0.22
  2183 2355-55-343     55    343.0       2134.    
     MULTIPLE LAYERS AND PROPORTIONS :    2, 0.78       3, 0.22
  2184 2355-61-40      61    40.00       2122.    
     MULTIPLE LAYERS AND PROPORTIONS :    2, 0.78       3, 0.22
  2185 2355-71-47      71    47.00       2094.    
  2186 2355-71-350     71    350.0       2092.    
  2187 2428-56-38      56    38.00       2135.    
  2188 2428-66-48      66    48.00       2102.    
  2189 2428-71-5       71    5.000       2091.    
  2190 2428-71-365     71    365.0       2091.    
  2191 2433-66-48      66    48.00       2099.    
  2192 2433-71-5       71    5.000       2091.    
  2193 2433-71-365     71    365.0       2087.    
  2194 2403-48-362     48    362.0       2122.    
     MULTIPLE LAYERS AND PROPORTIONS :    1, 0.25       2, 0.75
  2195 2403-55-343     55    343.0       2126.    
     MULTIPLE LAYERS AND PROPORTIONS :    1, 0.25       2, 0.75
  2196 2403-66-59      66    59.00       2098.    
     MULTIPLE LAYERS AND PROPORTIONS :    1, 0.25       2, 0.75
  2197 2403-71-47      71    47.00       2091.    
     MULTIPLE LAYERS AND PROPORTIONS :    1, 0.25       2, 0.75
  2198 2403-71-365     71    365.0       2090.    
     MULTIPLE LAYERS AND PROPORTIONS :    1, 0.25       2, 0.75
  2199 2410-66-59      66    59.00       2100.    
  2200 2410-71-47      71    47.00       2091.    
  2201 2410-71-365     71    365.0       2090.    
  2202 2462-8-38        8    38.00       2184.    
  2203 2464-12-50      12    50.00       2168.    
  2204 2464-17-23      17    23.00       2159.    
  2205 2464-22-23      22    23.00       2149.    
  2206 2459-42-362     42    362.0       2136.    
  2207 2459-48-362     48    362.0       2131.    
  2208 2409-66-48      66    48.00       2103.    
  2209 2409-71-12      71    12.00       2092.    
  2210 2357-12-50      12    50.00       2196.    
  2211 2357-17-35      17    35.00       2180.    
  2212 2357-22-23      22    23.00       2170.    
  2213 2357-27-34      27    34.00       2169.    
  2214 2357-37-34      37    34.00       2157.    
  2215 2357-66-48      66    48.00       2119.    
  2216 2357-71-12      71    12.00       2085.    
  2217 2357-71-365     71    365.0       2093.    
  2218 2336-61-21      61    21.00       2132.    
  2219 2363-56-38      56    38.00       2144.    
  2220 2363-66-48      66    48.00       2121.    
  2221 2363-71-5       71    5.000       2102.    
  2222 2363-71-365     71    365.0       2103.    
  2223 2460-22-25      22    25.00       2164.    
     MULTIPLE LAYERS AND PROPORTIONS :    1, 0.38       2, 0.62
  2224 2460-48-362     48    362.0       2136.    
     MULTIPLE LAYERS AND PROPORTIONS :    1, 0.38       2, 0.62
  2225 2460-55-343     55    343.0       2134.    
     MULTIPLE LAYERS AND PROPORTIONS :    1, 0.38       2, 0.62
  2226 2460-61-20      61    20.00       2124.    
     MULTIPLE LAYERS AND PROPORTIONS :    1, 0.38       2, 0.62
  2227 2460-66-49      66    49.00       2104.    
     MULTIPLE LAYERS AND PROPORTIONS :    1, 0.38       2, 0.62
  2228 2460-71-41      71    41.00       2096.    
     MULTIPLE LAYERS AND PROPORTIONS :    1, 0.38       2, 0.62
  2229 2460-71-350     71    350.0       2094.    
     MULTIPLE LAYERS AND PROPORTIONS :    1, 0.38       2, 0.62
  2230 2399-56-38      56    38.00       2138.    
  2231 2399-66-48      66    48.00       2114.    
  2232 2399-71-5       71    5.000       2100.    
  2233 2399-71-365     71    365.0       2099.    
  2234 2373-56-6       56    6.000       2140.    
     MULTIPLE LAYERS AND PROPORTIONS :    1, 0.25       2, 0.60       3, 0.15
  2235 2373-61-6       61    6.000       2129.    
     MULTIPLE LAYERS AND PROPORTIONS :    1, 0.25       2, 0.60       3, 0.15
  2236 2373-66-48      66    48.00       2121.    
     MULTIPLE LAYERS AND PROPORTIONS :    1, 0.25       2, 0.60       3, 0.15
  2237 2373-71-12      71    12.00       2104.    
     MULTIPLE LAYERS AND PROPORTIONS :    1, 0.25       2, 0.60       3, 0.15
  2238 2373-71-365     71    365.0       2104.    
     MULTIPLE LAYERS AND PROPORTIONS :    1, 0.25       2, 0.60       3, 0.15
  2239 2356-56-38      56    38.00       2142.    
  2240 2356-66-42      66    42.00       2133.    
  2241 2356-71-5       71    5.000       2113.    
  2242 2356-71-365     71    365.0       2115.    
  2243 2389-8-37        8    37.00       2225.    
  2244 2389-12-38      12    38.00       2209.    
  2245 2388-17-34      17    34.00       2187.    
  2246 2388-22-25      22    25.00       2175.    
  2247 2388-32-46      32    46.00       2167.    
  2248 2388-38-32      38    32.00       2160.    
  2249 2343-12-50      12    50.00       2205.    
     MULTIPLE LAYERS AND PROPORTIONS :    1, 0.60       2, 0.40
  2250 2343-17-35      17    35.00       2190.    
     MULTIPLE LAYERS AND PROPORTIONS :    1, 0.60       2, 0.40
  2251 2343-22-24      22    24.00       2178.    
     MULTIPLE LAYERS AND PROPORTIONS :    1, 0.60       2, 0.40
  2252 2343-61-21      61    21.00       2153.    
     MULTIPLE LAYERS AND PROPORTIONS :    1, 0.60       2, 0.40
  2253 2427-42-363     42    363.0       2149.    
     MULTIPLE LAYERS AND PROPORTIONS :    1, 0.33       2, 0.67
  2254 2427-48-337     48    337.0       2143.    
     MULTIPLE LAYERS AND PROPORTIONS :    1, 0.33       2, 0.67
  2255 2427-61-20      61    20.00       2124.    
     MULTIPLE LAYERS AND PROPORTIONS :    1, 0.33       2, 0.67
  2256 2427-66-31      66    31.00       2109.    
     MULTIPLE LAYERS AND PROPORTIONS :    1, 0.33       2, 0.67
  2257 2418-10-262     10    262.0       2219.    
  2258 2408-10-262     10    262.0       2234.    
  2259 2431-7-316       7    316.0       2228.    
  2260 2431-12-38      12    38.00       2209.    
  2261 2446-22-25      22    25.00       2182.    
     MULTIPLE LAYERS AND PROPORTIONS :    1, 0.60       2, 0.40
  2262 2447-7-32        7    32.00       2226.    
  2263 2432-7-316       7    316.0       2220.    
  2264 2432-12-33      12    33.00       2203.    
  2265 2432-22-1       22   1.0000       2179.    
  2266 2432-42-363     42    363.0       2152.    
  2267 2405-16-293     16    293.0       2215.    
  2268 2383-12-50      12    50.00       2224.    
  2269 2383-17-24      17    24.00       2210.    
  2270 2383-22-24      22    24.00       2199.    
  2271 2383-27-11      27    11.00       2194.    
  2272 2383-32-48      32    48.00       2181.    
  2273 2387-61-20      61    20.00       2131.    
     MULTIPLE LAYERS AND PROPORTIONS :    1, 0.18       2, 0.82
  2274 2387-66-28      66    28.00       2117.    
     MULTIPLE LAYERS AND PROPORTIONS :    1, 0.18       2, 0.82
  2275 2387-71-54      71    54.00       2115.    
     MULTIPLE LAYERS AND PROPORTIONS :    1, 0.18       2, 0.82
  2276 2372-27-47      27    47.00       2181.    
  2277 2372-42-363     42    363.0       2156.    
  2278 2372-56-19      56    19.00       2142.    
  2279 2372-71-54      71    54.00       2109.    
  2280 2332-61-20      61    20.00       2135.    
     MULTIPLE LAYERS AND PROPORTIONS :    1, 0.18       2, 0.82
  2281 2332-66-28      66    28.00       2141.    
     MULTIPLE LAYERS AND PROPORTIONS :    1, 0.18       2, 0.82
  2282 2332-71-54      71    54.00       2112.    
     MULTIPLE LAYERS AND PROPORTIONS :    1, 0.18       2, 0.82
  2283 2437-22-24      22    24.00       2213.    
  2284 2437-27-15      27    15.00       2208.    
  2285 2437-32-48      32    48.00       2196.    
  2286 2438-12-306     12    306.0       2233.    
  2287 2438-16-298     16    298.0       2223.    
  2288 2430-42-363     42    363.0       2158.    
     MULTIPLE LAYERS AND PROPORTIONS :    1, 0.28       2, 0.72
  2289 2430-48-337     48    337.0       2145.    
     MULTIPLE LAYERS AND PROPORTIONS :    1, 0.28       2, 0.72
  2290 2430-56-19      56    19.00       2141.    
     MULTIPLE LAYERS AND PROPORTIONS :    1, 0.28       2, 0.72
  2291 2430-66-28      66    28.00       2118.    
     MULTIPLE LAYERS AND PROPORTIONS :    1, 0.28       2, 0.72
  2292 2430-71-54      71    54.00       2126.    
     MULTIPLE LAYERS AND PROPORTIONS :    1, 0.28       2, 0.72
  2293 2444-10-264     10    264.0       2239.    
  2294 2424-10-265     10    265.0       2235.    
  2295 2425-10-265     10    265.0       2237.    
  2296 2414-10-263     10    263.0       2232.    
  2297 2458-42-362     42    362.0       2153.    
     MULTIPLE LAYERS AND PROPORTIONS :    1, 0.19       2, 0.81
  2298 2458-48-362     48    362.0       2143.    
     MULTIPLE LAYERS AND PROPORTIONS :    1, 0.19       2, 0.81
  2299 2458-56-32      56    32.00       2135.    
     MULTIPLE LAYERS AND PROPORTIONS :    1, 0.19       2, 0.81
  2300 2458-61-20      61    20.00       2125.    
     MULTIPLE LAYERS AND PROPORTIONS :    1, 0.19       2, 0.81
  2301 2458-66-49      66    49.00       2112.    
     MULTIPLE LAYERS AND PROPORTIONS :    1, 0.19       2, 0.81
  2302 2458-71-41      71    41.00       2118.    
     MULTIPLE LAYERS AND PROPORTIONS :    1, 0.19       2, 0.81
  2303 2458-71-365     71    365.0       2118.    
     MULTIPLE LAYERS AND PROPORTIONS :    1, 0.19       2, 0.81
  2304 2439-42-363     42    363.0       2156.    
     MULTIPLE LAYERS AND PROPORTIONS :    1, 0.25       2, 0.75
  2305 2439-48-337     48    337.0       2148.    
     MULTIPLE LAYERS AND PROPORTIONS :    1, 0.25       2, 0.75
  2306 2439-56-19      56    19.00       2143.    
     MULTIPLE LAYERS AND PROPORTIONS :    1, 0.25       2, 0.75
  2307 2439-61-20      61    20.00       2130.    
     MULTIPLE LAYERS AND PROPORTIONS :    1, 0.25       2, 0.75
  2308 2439-66-31      66    31.00       2114.    
     MULTIPLE LAYERS AND PROPORTIONS :    1, 0.25       2, 0.75
  2309 2415-1-52        1    52.00       2259.    
 Observation within a steady-state time step has been moved to the end of the time step.
  2310 2407-27-47      27    47.00       2201.    
     MULTIPLE LAYERS AND PROPORTIONS :    1, 0.30       2, 0.70
  2311 2407-61-20      61    20.00       2133.    
     MULTIPLE LAYERS AND PROPORTIONS :    1, 0.30       2, 0.70
  2312 2407-66-28      66    28.00       2118.    
     MULTIPLE LAYERS AND PROPORTIONS :    1, 0.30       2, 0.70
  2313 2407-71-54      71    54.00       2127.    
     MULTIPLE LAYERS AND PROPORTIONS :    1, 0.30       2, 0.70
  2314 2402-10-263     10    263.0       2229.    
  2315 2394-56-26      56    26.00       2149.    
  2316 2394-61-61      61    61.00       2142.    
  2317 2394-66-25      66    25.00       2129.    
  2318 2386-60-341     60    341.0       2130.    
  2319 2386-66-49      66    49.00       2121.    
  2320 2386-71-40      71    40.00       2124.    
  2321 2386-71-365     71    365.0       2125.    
  2322 2453-27-47      27    47.00       2278.    
  2323 2413-2-121       2    121.0       2301.    
  2324 2412-12-304     12    304.0       2252.    
     MULTIPLE LAYERS AND PROPORTIONS :    1, 0.97       2, 0.03
  2325 2412-16-298     16    298.0       2240.    
     MULTIPLE LAYERS AND PROPORTIONS :    1, 0.97       2, 0.03
  2326 2412-16-364     16    364.0       2242.    
     MULTIPLE LAYERS AND PROPORTIONS :    1, 0.97       2, 0.03
  2327 2398-1-357       1    357.0       2279.    
 Observation within a steady-state time step has been moved to the end of the time step.
  2328 2398-7-2         7    2.000       2288.    
  2329 2395-42-363     42    363.0       2217.    
     MULTIPLE LAYERS AND PROPORTIONS :    1, 0.70       2, 0.30
  2330 2395-48-337     48    337.0       2208.    
     MULTIPLE LAYERS AND PROPORTIONS :    1, 0.70       2, 0.30
  2331 2385-42-363     42    363.0       2211.    
     MULTIPLE LAYERS AND PROPORTIONS :    1, 0.68       2, 0.32
  2332 2385-48-362     48    362.0       2200.    
     MULTIPLE LAYERS AND PROPORTIONS :    1, 0.68       2, 0.32
  2333 2385-55-346     55    346.0       2189.    
     MULTIPLE LAYERS AND PROPORTIONS :    1, 0.68       2, 0.32
  2334 2385-61-31      61    31.00       2180.    
     MULTIPLE LAYERS AND PROPORTIONS :    1, 0.68       2, 0.32
  2335 2385-66-1       66   1.0000       2161.    
     MULTIPLE LAYERS AND PROPORTIONS :    1, 0.68       2, 0.32
  2336 2385-71-41      71    41.00       2161.    
     MULTIPLE LAYERS AND PROPORTIONS :    1, 0.68       2, 0.32
  2337 2385-71-365     71    365.0       2167.    
     MULTIPLE LAYERS AND PROPORTIONS :    1, 0.68       2, 0.32
  2338 2282-12-46      12    46.00       2278.    
  2339 2282-17-24      17    24.00       2263.    
  2340 2282-22-24      22    24.00       2258.    
  2341 2282-32-48      32    48.00       2238.    
  2342 2326-26-293     26    293.0       2237.    
     MULTIPLE LAYERS AND PROPORTIONS :    1, 0.30       2, 0.58       3, 0.12
  2343 2326-42-363     42    363.0       2208.    
     MULTIPLE LAYERS AND PROPORTIONS :    1, 0.30       2, 0.58       3, 0.12
  2344 2326-48-362     48    362.0       2194.    
     MULTIPLE LAYERS AND PROPORTIONS :    1, 0.30       2, 0.58       3, 0.12
  2345 2326-56-33      56    33.00       2168.    
     MULTIPLE LAYERS AND PROPORTIONS :    1, 0.30       2, 0.58       3, 0.12
  2346 2326-61-41      61    41.00       2167.    
     MULTIPLE LAYERS AND PROPORTIONS :    1, 0.30       2, 0.58       3, 0.12
  2347 2326-66-45      66    45.00       2152.    
     MULTIPLE LAYERS AND PROPORTIONS :    1, 0.30       2, 0.58       3, 0.12
  2348 2326-71-41      71    41.00       2156.    
     MULTIPLE LAYERS AND PROPORTIONS :    1, 0.30       2, 0.58       3, 0.12
  2349 2326-71-365     71    365.0       2160.    
     MULTIPLE LAYERS AND PROPORTIONS :    1, 0.30       2, 0.58       3, 0.12
  2350 2260-56-26      56    26.00       2172.    
  2351 2260-61-61      61    61.00       2161.    
  2352 2260-66-25      66    25.00       2147.    
  2353 2260-71-61      71    61.00       2152.    
  2354 2202-71-61      71    61.00       2133.    
  2355 2127-42-335     42    335.0       2192.    
     MULTIPLE LAYERS AND PROPORTIONS :    1, 0.59       2, 0.41
  2356 2283-7-311       7    311.0       2250.    
     MULTIPLE LAYERS AND PROPORTIONS :    1, 0.98       2, 0.02
  2357 2283-17-24      17    24.00       2219.    
     MULTIPLE LAYERS AND PROPORTIONS :    1, 0.98       2, 0.02
  2358 2283-22-24      22    24.00       2212.    
     MULTIPLE LAYERS AND PROPORTIONS :    1, 0.98       2, 0.02
  2359 2283-27-47      27    47.00       2202.    
     MULTIPLE LAYERS AND PROPORTIONS :    1, 0.98       2, 0.02
  2360 2283-32-48      32    48.00       2187.    
     MULTIPLE LAYERS AND PROPORTIONS :    1, 0.98       2, 0.02
  2361 2283-35-15      35    15.00       2180.    
     MULTIPLE LAYERS AND PROPORTIONS :    1, 0.98       2, 0.02
  2362 2291-37-32      37    32.00       2177.    
     MULTIPLE LAYERS AND PROPORTIONS :    1, 0.31       2, 0.69
  2363 2291-48-338     48    338.0       2156.    
     MULTIPLE LAYERS AND PROPORTIONS :    1, 0.31       2, 0.69
  2364 2291-60-321     60    321.0       2133.    
     MULTIPLE LAYERS AND PROPORTIONS :    1, 0.31       2, 0.69
  2365 2291-71-13      71    13.00       2129.    
     MULTIPLE LAYERS AND PROPORTIONS :    1, 0.31       2, 0.69
  2366 2291-71-365     71    365.0       2130.    
     MULTIPLE LAYERS AND PROPORTIONS :    1, 0.31       2, 0.69
  2367 2304-7-311       7    311.0       2243.    
  2368 2304-12-38      12    38.00       2229.    
  2369 2304-17-3       17    3.000       2211.    
  2370 2304-22-24      22    24.00       2202.    
  2371 2304-27-11      27    11.00       2197.    
  2372 2237-7-79        7    79.00       2255.    
  2373 2237-12-38      12    38.00       2241.    
  2374 2237-17-24      17    24.00       2224.    
  2375 2237-22-24      22    24.00       2217.    
  2376 2237-27-16      27    16.00       2200.    
  2377 2218-56-34      56    34.00       2138.    
  2378 2218-66-59      66    59.00       2128.    
  2379 2218-71-54      71    54.00       2128.    
  2380 2218-71-365     71    365.0       2128.    
  2381 2212-26-349     26    349.0       2217.    
     MULTIPLE LAYERS AND PROPORTIONS :    1, 0.13       2, 0.87
  2382 2212-42-362     42    362.0       2184.    
     MULTIPLE LAYERS AND PROPORTIONS :    1, 0.13       2, 0.87
  2383 2212-61-20      61    20.00       2151.    
     MULTIPLE LAYERS AND PROPORTIONS :    1, 0.13       2, 0.87
  2384 2212-66-59      66    59.00       2145.    
     MULTIPLE LAYERS AND PROPORTIONS :    1, 0.13       2, 0.87
  2385 2212-71-54      71    54.00       2148.    
     MULTIPLE LAYERS AND PROPORTIONS :    1, 0.13       2, 0.87
  2386 2212-71-365     71    365.0       2148.    
     MULTIPLE LAYERS AND PROPORTIONS :    1, 0.13       2, 0.87
  2387 2213-56-34      56    34.00       2137.    
  2388 2213-66-59      66    59.00       2132.    
  2389 2213-71-54      71    54.00       2133.    
  2390 2213-71-365     71    365.0       2133.    
  2391 2177-42-363     42    363.0       2166.    
     MULTIPLE LAYERS AND PROPORTIONS :    1, 0.62       2, 0.38
  2392 2177-48-337     48    337.0       2168.    
  2393 2177-56-19      56    19.00       2145.    
  2394 2177-66-31      66    31.00       2130.    
  2395 2177-71-54      71    54.00       2106.    
  2396 2175-6-283       6    283.0       2262.    
  2397 2175-12-51      12    51.00       2240.    
  2398 2175-17-24      17    24.00       2228.    
  2399 2175-22-24      22    24.00       2220.    
  2400 2175-27-47      27    47.00       2202.    
  2401 2176-56-34      56    34.00       2142.    
  2402 2176-66-59      66    59.00       2132.    
  2403 2176-71-54      71    54.00       2133.    
  2404 2176-71-365     71    365.0       2133.    
  2405 2154-56-19      56    19.00       2146.    
     MULTIPLE LAYERS AND PROPORTIONS :    2, 0.39       3, 0.61
  2406 2154-61-20      61    20.00       2142.    
     MULTIPLE LAYERS AND PROPORTIONS :    2, 0.39       3, 0.61
  2407 2154-66-28      66    28.00       2135.    
     MULTIPLE LAYERS AND PROPORTIONS :    2, 0.39       3, 0.61
  2408 2154-71-54      71    54.00       2139.    
     MULTIPLE LAYERS AND PROPORTIONS :    2, 0.39       3, 0.61
  2409 2232-56-26      56    26.00       2147.    
  2410 2232-61-20      61    20.00       2140.    
  2411 2232-66-25      66    25.00       2134.    
  2412 2232-71-53      71    53.00       2137.    
  2413 2211-56-26      56    26.00       2149.    
  2414 2211-61-20      61    20.00       2141.    
  2415 2211-66-25      66    25.00       2137.    
  2416 2211-71-53      71    53.00       2141.    
  2417 2233-56-26      56    26.00       2143.    
  2418 2233-61-20      61    20.00       2139.    
  2419 2170-56-26      56    26.00       2146.    
  2420 2170-66-25      66    25.00       2135.    
  2421 2131-12-290     12    290.0       2246.    
  2422 2131-56-26      56    26.00       2155.    
  2423 2131-61-61      61    61.00       2150.    
  2424 2131-66-25      66    25.00       2143.    
  2425 2131-71-53      71    53.00       2148.    
  2426 2137-42-363     42    363.0       2174.    
     MULTIPLE LAYERS AND PROPORTIONS :    2, 0.99       3, 0.01
  2427 2137-48-338     48    338.0       2172.    
     MULTIPLE LAYERS AND PROPORTIONS :    2, 0.99       3, 0.01
  2428 2137-56-24      56    24.00       2171.    
     MULTIPLE LAYERS AND PROPORTIONS :    2, 0.99       3, 0.01
  2429 2137-66-19      66    19.00       2140.    
     MULTIPLE LAYERS AND PROPORTIONS :    2, 0.99       3, 0.01
  2430 2137-71-60      71    60.00       2138.    
     MULTIPLE LAYERS AND PROPORTIONS :    2, 0.99       3, 0.01
  2431 2289-11-38      11    38.00       2218.    
  2432 2289-17-33      17    33.00       2195.    
  2433 2289-22-24      22    24.00       2184.    
  2434 2289-32-32      32    32.00       2180.    
  2435 2241-10-33      10    33.00       2227.    
  2436 2241-17-33      17    33.00       2199.    
  2437 2241-22-24      22    24.00       2189.    
  2438 2241-42-363     42    363.0       2164.    
  2439 2241-48-334     48    334.0       2158.    
  2440 2241-56-26      56    26.00       2149.    
  2441 2241-61-21      61    21.00       2141.    
  2442 2236-1-357       1    357.0       2246.    
 Observation within a steady-state time step has been moved to the end of the time step.
  2443 2236-6-341       6    341.0       2242.    
  2444 2236-12-59      12    59.00       2219.    
  2445 2236-16-313     16    313.0       2206.    
  2446 2236-22-32      22    32.00       2193.    
  2447 2327-71-365     71    365.0       2124.    
  2448 2306-71-54      71    54.00       2114.    
  2449 2306-71-365     71    365.0       2108.    
  2450 2264-56-38      56    38.00       2145.    
  2451 2264-66-48      66    48.00       2132.    
  2452 2264-71-5       71    5.000       2111.    
  2453 2264-71-365     71    365.0       2111.    
  2454 2307-71-54      71    54.00       2110.    
  2455 2307-71-365     71    365.0       2102.    
  2456 2292-56-38      56    38.00       2153.    
  2457 2292-66-42      66    42.00       2134.    
  2458 2293-56-38      56    38.00       2152.    
  2459 2293-66-48      66    48.00       2131.    
  2460 2293-71-12      71    12.00       2097.    
  2461 2293-71-365     71    365.0       2111.    
  2462 2272-55-346     55    346.0       2143.    
  2463 2272-71-54      71    54.00       2109.    
  2464 2272-71-365     71    365.0       2100.    
  2465 2268-66-3       66    3.000       2122.    
  2466 2268-71-365     71    365.0       2107.    
  2467 2242-56-38      56    38.00       2144.    
  2468 2242-66-48      66    48.00       2122.    
  2469 2242-71-365     71    365.0       2100.    
  2470 2257-56-38      56    38.00       2149.    
  2471 2257-66-48      66    48.00       2135.    
  2472 2258-56-38      56    38.00       2152.    
  2473 2258-66-48      66    48.00       2138.    
  2474 2187-42-362     42    362.0       2156.    
  2475 2187-48-336     48    336.0       2152.    
  2476 2187-56-5       56    5.000       2143.    
  2477 2187-61-6       61    6.000       2137.    
  2478 2187-66-48      66    48.00       2121.    
  2479 2187-71-54      71    54.00       2107.    
  2480 2187-71-349     71    349.0       2100.    
  2481 2234-56-38      56    38.00       2152.    
  2482 2234-66-48      66    48.00       2126.    
  2483 2226-66-48      66    48.00       2127.    
  2484 2155-56-38      56    38.00       2153.    
  2485 2155-66-48      66    48.00       2127.    
  2486 2333-56-38      56    38.00       2142.    
  2487 2333-66-48      66    48.00       2117.    
  2488 2308-56-38      56    38.00       2143.    
  2489 2308-66-48      66    48.00       2123.    
  2490 2308-71-21      71    21.00       2103.    
  2491 2308-71-365     71    365.0       2104.    
  2492 2329-56-38      56    38.00       2145.    
  2493 2329-66-48      66    48.00       2123.    
  2494 2329-71-12      71    12.00       2098.    
  2495 2329-71-365     71    365.0       2104.    
  2496 2319-66-48      66    48.00       2133.    
  2497 2320-56-38      56    38.00       2146.    
  2498 2320-66-48      66    48.00       2131.    
  2499 2320-71-12      71    12.00       2108.    
  2500 2320-71-365     71    365.0       2112.    
  2501 2299-55-343     55    343.0       2141.    
  2502 2299-71-54      71    54.00       2096.    
  2503 2299-71-365     71    365.0       2096.    
  2504 2274-56-38      56    38.00       2145.    
  2505 2274-71-54      71    54.00       2106.    
  2506 2274-71-365     71    365.0       2098.    
  2507 2294-56-38      56    38.00       2148.    
  2508 2294-66-48      66    48.00       2126.    
  2509 2294-71-12      71    12.00       2100.    
  2510 2294-71-365     71    365.0       2105.    
  2511 2273-56-38      56    38.00       2146.    
  2512 2273-66-48      66    48.00       2124.    
  2513 2273-71-21      71    21.00       2104.    
  2514 2273-71-365     71    365.0       2103.    
  2515 2284-66-42      66    42.00       2108.    
  2516 2167-1-365       1    365.0       2231.    
 Observation within a steady-state time step has been moved to the end of the time step.
  2517 2167-7-310       7    310.0       2218.    
  2518 2167-11-38      11    38.00       2206.    
  2519 2183-12-50      12    50.00       2200.    
  2520 2183-17-34      17    34.00       2181.    
  2521 2183-22-23      22    23.00       2171.    
  2522 2183-32-47      32    47.00       2167.    
  2523 2183-38-32      38    32.00       2162.    
  2524 2168-42-364     42    364.0       2155.    
  2525 2243-42-364     42    364.0       2133.    
     MULTIPLE LAYERS AND PROPORTIONS :    2, 0.93       3, 0.07
  2526 2243-56-25      56    25.00       2126.    
     MULTIPLE LAYERS AND PROPORTIONS :    2, 0.93       3, 0.07
  2527 2243-66-19      66    19.00       2074.    
     MULTIPLE LAYERS AND PROPORTIONS :    2, 0.93       3, 0.07
  2528 2108-66-48      66    48.00       2141.    
  2529 2109-12-50      12    50.00       2233.    
  2530 2109-17-34      17    34.00       2214.    
  2531 2109-22-23      22    23.00       2204.    
  2532 2109-42-362     42    362.0       2172.    
  2533 2109-48-363     48    363.0       2170.    
  2534 2109-55-346     55    346.0       2156.    
  2535 2109-60-323     60    323.0       2151.    
  2536 2109-66-48      66    48.00       2144.    
  2537 2109-71-12      71    12.00       2126.    
  2538 2109-71-349     71    349.0       2126.    
  2539 1991-7-25        7    25.00       2262.    
     MULTIPLE LAYERS AND PROPORTIONS :    1, 0.40       2, 0.60
  2540 1991-12-50      12    50.00       2243.    
     MULTIPLE LAYERS AND PROPORTIONS :    1, 0.40       2, 0.60
  2541 1991-17-34      17    34.00       2224.    
     MULTIPLE LAYERS AND PROPORTIONS :    1, 0.40       2, 0.60
  2542 1991-22-23      22    23.00       2214.    
     MULTIPLE LAYERS AND PROPORTIONS :    1, 0.40       2, 0.60
  2543 1991-27-11      27    11.00       2207.    
     MULTIPLE LAYERS AND PROPORTIONS :    1, 0.40       2, 0.60
  2544 1991-38-32      38    32.00       2199.    
     MULTIPLE LAYERS AND PROPORTIONS :    1, 0.40       2, 0.60
  2545 1991-42-365     42    365.0       2178.    
     MULTIPLE LAYERS AND PROPORTIONS :    1, 0.40       2, 0.60
  2546 1991-48-337     48    337.0       2181.    
  2547 1991-56-25      56    25.00       2168.    
  2548 1991-60-323     60    323.0       2162.    
  2549 2038-12-51      12    51.00       2244.    
  2550 2038-17-24      17    24.00       2232.    
  2551 2038-22-24      22    24.00       2223.    
  2552 2038-56-19      56    19.00       2217.    
  2553 2122-61-21      61    21.00       2149.    
     MULTIPLE LAYERS AND PROPORTIONS :    2, 0.98       3, 0.02
  2554 2075-56-38      56    38.00       2165.    
  2555 2039-61-21      61    21.00       2161.    
     MULTIPLE LAYERS AND PROPORTIONS :    2, 0.92       3, 0.08
  2556 2021-61-20      61    20.00       2161.    
     MULTIPLE LAYERS AND PROPORTIONS :    1, 0.74       2, 0.26
  2557 2020-61-21      61    21.00       2164.    
     MULTIPLE LAYERS AND PROPORTIONS :    1, 0.42       2, 0.58
  2558 1987-66-48      66    48.00       2158.    
  2559 1958-42-362     42    362.0       2187.    
     MULTIPLE LAYERS AND PROPORTIONS :    1, 0.30       2, 0.70
  2560 1958-48-362     48    362.0       2189.    
     MULTIPLE LAYERS AND PROPORTIONS :    1, 0.30       2, 0.70
  2561 1958-55-346     55    346.0       2175.    
     MULTIPLE LAYERS AND PROPORTIONS :    1, 0.30       2, 0.70
  2562 1958-61-20      61    20.00       2168.    
     MULTIPLE LAYERS AND PROPORTIONS :    1, 0.30       2, 0.70
  2563 1958-66-1       66   1.0000       2158.    
     MULTIPLE LAYERS AND PROPORTIONS :    1, 0.30       2, 0.70
  2564 1958-71-47      71    47.00       2154.    
     MULTIPLE LAYERS AND PROPORTIONS :    1, 0.30       2, 0.70
  2565 1958-71-349     71    349.0       2153.    
     MULTIPLE LAYERS AND PROPORTIONS :    1, 0.30       2, 0.70
  2566 1952-12-301     12    301.0       2256.    
     MULTIPLE LAYERS AND PROPORTIONS :    1, 0.31       2, 0.69
  2567 1952-17-4       17    4.000       2237.    
     MULTIPLE LAYERS AND PROPORTIONS :    1, 0.31       2, 0.69
  2568 1952-22-32      22    32.00       2234.    
     MULTIPLE LAYERS AND PROPORTIONS :    1, 0.31       2, 0.69
  2569 1952-27-11      27    11.00       2225.    
     MULTIPLE LAYERS AND PROPORTIONS :    1, 0.31       2, 0.69
  2570 2107-56-26      56    26.00       2157.    
     MULTIPLE LAYERS AND PROPORTIONS :    1, 0.15       2, 0.65       3, 0.20
  2571 2107-61-20      61    20.00       2145.    
     MULTIPLE LAYERS AND PROPORTIONS :    1, 0.15       2, 0.65       3, 0.20
  2572 2107-71-53      71    53.00       2148.    
     MULTIPLE LAYERS AND PROPORTIONS :    1, 0.15       2, 0.65       3, 0.20
  2573 2079-7-152       7    152.0       2264.    
  2574 2079-61-20      61    20.00       2145.    
  2575 2057-42-362     42    362.0       2188.    
  2576 2057-48-362     48    362.0       2181.    
  2577 2057-55-346     55    346.0       2150.    
  2578 2057-61-20      61    20.00       2156.    
  2579 2057-65-354     65    354.0       2147.    
  2580 2057-71-56      71    56.00       2152.    
  2581 2057-71-365     71    365.0       2152.    
  2582 2161-6-283       6    283.0       2266.    
  2583 2161-10-283     10    283.0       2246.    
  2584 2161-17-24      17    24.00       2232.    
  2585 2161-22-24      22    24.00       2224.    
  2586 2161-27-47      27    47.00       2212.    
  2587 2161-32-48      32    48.00       2199.    
  2588 2161-38-32      38    32.00       2192.    
  2589 2094-61-20      61    20.00       2148.    
     MULTIPLE LAYERS AND PROPORTIONS :    1, 0.23       2, 0.35       3, 0.42
  2590 2094-66-28      66    28.00       2138.    
     MULTIPLE LAYERS AND PROPORTIONS :    1, 0.23       2, 0.35       3, 0.42
  2591 2094-71-54      71    54.00       2143.    
     MULTIPLE LAYERS AND PROPORTIONS :    1, 0.23       2, 0.35       3, 0.42
  2592 2059-7-311       7    311.0       2263.    
     MULTIPLE LAYERS AND PROPORTIONS :    1, 0.99       2, 0.01
  2593 2059-12-51      12    51.00       2255.    
     MULTIPLE LAYERS AND PROPORTIONS :    1, 0.99       2, 0.01
  2594 2059-17-4       17    4.000       2229.    
     MULTIPLE LAYERS AND PROPORTIONS :    1, 0.99       2, 0.01
  2595 2059-22-24      22    24.00       2220.    
     MULTIPLE LAYERS AND PROPORTIONS :    1, 0.99       2, 0.01
  2596 2059-27-47      27    47.00       2219.    
     MULTIPLE LAYERS AND PROPORTIONS :    1, 0.99       2, 0.01
  2597 2059-61-21      61    21.00       2174.    
     MULTIPLE LAYERS AND PROPORTIONS :    1, 0.99       2, 0.01
  2598 1989-42-365     42    365.0       2190.    
  2599 1989-56-17      56    17.00       2179.    
  2600 1989-61-20      61    20.00       2170.    
  2601 1968-42-365     42    365.0       2192.    
     MULTIPLE LAYERS AND PROPORTIONS :    2, 0.36       3, 0.64
  2602 1968-56-17      56    17.00       2180.    
     MULTIPLE LAYERS AND PROPORTIONS :    2, 0.36       3, 0.64
  2603 1968-61-20      61    20.00       2173.    
     MULTIPLE LAYERS AND PROPORTIONS :    2, 0.36       3, 0.64
  2604 1937-56-17      56    17.00       2189.    
  2605 1937-61-20      61    20.00       2176.    
  2606 1937-66-27      66    27.00       2171.    
  2607 2007-61-21      61    21.00       2165.    
  2608 2007-66-25      66    25.00       2159.    
  2609 1981-61-21      61    21.00       2168.    
     MULTIPLE LAYERS AND PROPORTIONS :    1, 0.21       2, 0.79
  2610 2037-66-32      66    32.00       2145.    
  2611 2106-26-349     26    349.0       2227.    
     MULTIPLE LAYERS AND PROPORTIONS :    2, 0.43       3, 0.57
  2612 2106-32-32      32    32.00       2213.    
     MULTIPLE LAYERS AND PROPORTIONS :    2, 0.43       3, 0.57
  2613 2106-42-362     42    362.0       2192.    
     MULTIPLE LAYERS AND PROPORTIONS :    2, 0.43       3, 0.57
  2614 2106-48-362     48    362.0       2179.    
     MULTIPLE LAYERS AND PROPORTIONS :    2, 0.43       3, 0.57
  2615 2106-56-34      56    34.00       2160.    
     MULTIPLE LAYERS AND PROPORTIONS :    2, 0.43       3, 0.57
  2616 2106-61-41      61    41.00       2151.    
     MULTIPLE LAYERS AND PROPORTIONS :    2, 0.43       3, 0.57
  2617 2106-66-54      66    54.00       2145.    
     MULTIPLE LAYERS AND PROPORTIONS :    2, 0.43       3, 0.57
  2618 2106-71-41      71    41.00       2144.    
     MULTIPLE LAYERS AND PROPORTIONS :    2, 0.43       3, 0.57
  2619 2106-71-365     71    365.0       2148.    
     MULTIPLE LAYERS AND PROPORTIONS :    2, 0.43       3, 0.57
  2620 1951-12-51      12    51.00       2290.    
     MULTIPLE LAYERS AND PROPORTIONS :    1, 0.81       2, 0.19
  2621 1951-17-39      17    39.00       2273.    
     MULTIPLE LAYERS AND PROPORTIONS :    1, 0.81       2, 0.19
  2622 1951-22-28      22    28.00       2266.    
     MULTIPLE LAYERS AND PROPORTIONS :    1, 0.81       2, 0.19
  2623 1951-38-354     38    354.0       2221.    
     MULTIPLE LAYERS AND PROPORTIONS :    1, 0.81       2, 0.19
  2624 1951-42-363     42    363.0       2215.    
     MULTIPLE LAYERS AND PROPORTIONS :    1, 0.81       2, 0.19
  2625 1951-48-362     48    362.0       2201.    
     MULTIPLE LAYERS AND PROPORTIONS :    1, 0.81       2, 0.19
  2626 1951-55-346     55    346.0       2181.    
     MULTIPLE LAYERS AND PROPORTIONS :    1, 0.81       2, 0.19
  2627 1951-61-41      61    41.00       2171.    
     MULTIPLE LAYERS AND PROPORTIONS :    1, 0.81       2, 0.19
  2628 1951-66-49      66    49.00       2160.    
     MULTIPLE LAYERS AND PROPORTIONS :    1, 0.81       2, 0.19
  2629 1951-71-56      71    56.00       2163.    
     MULTIPLE LAYERS AND PROPORTIONS :    1, 0.81       2, 0.19
  2630 1951-71-365     71    365.0       2165.    
     MULTIPLE LAYERS AND PROPORTIONS :    1, 0.81       2, 0.19
  2631 2494-1-365       1    365.0       2306.    
 Observation within a steady-state time step has been moved to the end of the time step.
  2632 2489-22-66      22    66.00       2270.    
     MULTIPLE LAYERS AND PROPORTIONS :    1, 0.61       2, 0.39
  2633 2489-27-87      27    87.00       2267.    
     MULTIPLE LAYERS AND PROPORTIONS :    1, 0.61       2, 0.39
  2634 2489-32-1       32   1.0000       2263.    
     MULTIPLE LAYERS AND PROPORTIONS :    1, 0.61       2, 0.39
  2635 2489-33-60      33    60.00       2258.    
     MULTIPLE LAYERS AND PROPORTIONS :    1, 0.61       2, 0.39
  2636 2489-42-363     42    363.0       2252.    
  2637 2489-55-349     55    349.0       2237.    
  2638 2429-61-61      61    61.00       2229.    
  2639 2429-66-25      66    25.00       2207.    
  2640 2429-71-53      71    53.00       2208.    
  2641 2457-22-65      22    65.00       2248.    
     MULTIPLE LAYERS AND PROPORTIONS :    1, 0.51       2, 0.49
  2642 2457-26-341     26    341.0       2237.    
     MULTIPLE LAYERS AND PROPORTIONS :    1, 0.51       2, 0.49
  2643 2457-31-335     31    335.0       2239.    
     MULTIPLE LAYERS AND PROPORTIONS :    1, 0.51       2, 0.49
  2644 2457-33-60      33    60.00       2232.    
     MULTIPLE LAYERS AND PROPORTIONS :    1, 0.51       2, 0.49
  2645 2457-42-363     42    363.0       2227.    
     MULTIPLE LAYERS AND PROPORTIONS :    1, 0.51       2, 0.49
  2646 2457-48-337     48    337.0       2219.    
     MULTIPLE LAYERS AND PROPORTIONS :    1, 0.51       2, 0.49
  2647 2457-56-18      56    18.00       2213.    
     MULTIPLE LAYERS AND PROPORTIONS :    1, 0.51       2, 0.49
  2648 2457-61-47      61    47.00       2207.    
     MULTIPLE LAYERS AND PROPORTIONS :    1, 0.51       2, 0.49
  2649 2457-66-32      66    32.00       2182.    
     MULTIPLE LAYERS AND PROPORTIONS :    1, 0.51       2, 0.49
  2650 2457-71-14      71    14.00       2184.    
     MULTIPLE LAYERS AND PROPORTIONS :    1, 0.51       2, 0.49
  2651 2457-71-42      71    42.00       2182.    
     MULTIPLE LAYERS AND PROPORTIONS :    1, 0.51       2, 0.49
  2652 2457-71-365     71    365.0       2191.    
     MULTIPLE LAYERS AND PROPORTIONS :    1, 0.51       2, 0.49
  2653 2457-71-365     71    365.0       2188.    
     MULTIPLE LAYERS AND PROPORTIONS :    1, 0.51       2, 0.49
  2654 2426-61-61      61    61.00       2226.    
  2655 2426-66-25      66    25.00       2191.    
  2656 2378-22-66      22    66.00       2269.    
  2657 2378-26-341     26    341.0       2254.    
  2658 2378-31-335     31    335.0       2251.    
  2659 2377-7-1         7   1.0000       2301.    
  2660 2377-12-92      12    92.00       2285.    
  2661 2382-1-365       1    365.0       2301.    
 Observation within a steady-state time step has been moved to the end of the time step.
  2662 2369-16-364     16    364.0       2258.    
  2663 2397-10-255     10    255.0       2291.    
  2664 2381-66-32      66    32.00       2184.    
  2665 2368-56-25      56    25.00       2246.    
  2666 2368-61-48      61    48.00       2216.    
  2667 2364-56-25      56    25.00       2246.    
     MULTIPLE LAYERS AND PROPORTIONS :    1, 0.24       2, 0.76
  2668 2364-61-48      61    48.00       2218.    
     MULTIPLE LAYERS AND PROPORTIONS :    1, 0.24       2, 0.76
  2669 2364-66-24      66    24.00       2182.    
     MULTIPLE LAYERS AND PROPORTIONS :    1, 0.24       2, 0.76
  2670 2364-71-14      71    14.00       2189.    
     MULTIPLE LAYERS AND PROPORTIONS :    1, 0.24       2, 0.76
  2671 2364-71-365     71    365.0       2205.    
     MULTIPLE LAYERS AND PROPORTIONS :    1, 0.24       2, 0.76
  2672 2361-56-25      56    25.00       2233.    
  2673 2361-61-48      61    48.00       2213.    
  2674 2361-66-24      66    24.00       2179.    
  2675 2361-71-14      71    14.00       2186.    
  2676 2361-71-365     71    365.0       2200.    
  2677 2349-42-364     42    364.0       2247.    
     MULTIPLE LAYERS AND PROPORTIONS :    1, 0.35       2, 0.65
  2678 2349-48-341     48    341.0       2231.    
     MULTIPLE LAYERS AND PROPORTIONS :    1, 0.35       2, 0.65
  2679 2349-56-18      56    18.00       2229.    
     MULTIPLE LAYERS AND PROPORTIONS :    1, 0.35       2, 0.65
  2680 2349-61-48      61    48.00       2207.    
     MULTIPLE LAYERS AND PROPORTIONS :    1, 0.35       2, 0.65
  2681 2349-66-24      66    24.00       2174.    
     MULTIPLE LAYERS AND PROPORTIONS :    1, 0.35       2, 0.65
  2682 2349-71-14      71    14.00       2184.    
     MULTIPLE LAYERS AND PROPORTIONS :    1, 0.35       2, 0.65
  2683 2349-71-365     71    365.0       2198.    
     MULTIPLE LAYERS AND PROPORTIONS :    1, 0.35       2, 0.65
  2684 2422-32-60      32    60.00       2288.    
  2685 2422-33-60      33    60.00       2281.    
  2686 2422-42-363     42    363.0       2283.    
  2687 2422-48-357     48    357.0       2271.    
  2688 2422-55-349     55    349.0       2262.    
  2689 2422-61-3       61    3.000       2255.    
  2690 2406-22-65      22    65.00       2281.    
  2691 2396-16-298     16    298.0       2300.    
  2692 2396-22-32      22    32.00       2300.    
  2693 2396-27-10      27   10.000       2326.    
  2694 2401-22-65      22    65.00       2282.    
  2695 2376-26-341     26    341.0       2266.    
     MULTIPLE LAYERS AND PROPORTIONS :    1, 0.53       2, 0.47
  2696 2365-22-65      22    65.00       2290.    
     MULTIPLE LAYERS AND PROPORTIONS :    1, 0.84       2, 0.16
  2697 2365-27-4       27    4.000       2327.    
     MULTIPLE LAYERS AND PROPORTIONS :    1, 0.84       2, 0.16
  2698 2335-56-18      56    18.00       2237.    
     MULTIPLE LAYERS AND PROPORTIONS :    1, 0.48       2, 0.52
  2699 2335-60-322     60    322.0       2219.    
     MULTIPLE LAYERS AND PROPORTIONS :    1, 0.48       2, 0.52
  2700 2335-65-326     65    326.0       2181.    
     MULTIPLE LAYERS AND PROPORTIONS :    1, 0.48       2, 0.52
  2701 2335-71-365     71    365.0       2205.    
     MULTIPLE LAYERS AND PROPORTIONS :    1, 0.48       2, 0.52
  2702 2348-56-18      56    18.00       2235.    
     MULTIPLE LAYERS AND PROPORTIONS :    1, 0.34       2, 0.38       3, 0.28
  2703 2348-61-48      61    48.00       2211.    
     MULTIPLE LAYERS AND PROPORTIONS :    1, 0.34       2, 0.38       3, 0.28
  2704 2348-66-24      66    24.00       2178.    
     MULTIPLE LAYERS AND PROPORTIONS :    1, 0.34       2, 0.38       3, 0.28
  2705 2348-71-365     71    365.0       2205.    
     MULTIPLE LAYERS AND PROPORTIONS :    1, 0.34       2, 0.38       3, 0.28
  2706 2347-42-364     42    364.0       2259.    
  2707 2347-48-337     48    337.0       2252.    
  2708 2347-56-18      56    18.00       2242.    
  2709 2347-61-48      61    48.00       2222.    
  2710 2347-66-24      66    24.00       2187.    
  2711 2380-61-48      61    48.00       2240.    
  2712 2392-61-48      61    48.00       2242.    
  2713 2391-61-48      61    48.00       2240.    
  2714 2391-66-25      66    25.00       2195.    
  2715 2374-66-40      66    40.00       2191.    
  2716 2374-71-365     71    365.0       2221.    
  2717 2354-16-361     16    361.0       2331.    
  2718 2353-48-274     48    274.0       2274.    
  2719 2352-22-65      22    65.00       2336.    
  2720 2351-66-45      66    45.00       2366.    
  2721 2351-71-42      71    42.00       2367.    
  2722 2351-71-365     71    365.0       2368.    
  2723 2341-55-348     55    348.0       2402.    
  2724 2341-66-45      66    45.00       2396.    
  2725 2341-71-42      71    42.00       2399.    
  2726 2341-71-365     71    365.0       2403.    
  2727 2350-42-355     42    355.0       2373.    
  2728 2350-48-355     48    355.0       2372.    
  2729 2350-55-348     55    348.0       2373.    
  2730 2350-61-3       61    3.000       2371.    
  2731 2350-71-42      71    42.00       2367.    
  2732 2350-71-365     71    365.0       2368.    
  2733 2358-48-306     48    306.0       2396.    
  2734 2215-1-357       1    357.0       2435.    
 Observation within a steady-state time step has been moved to the end of the time step.
  2735 2215-6-295       6    295.0       2429.    
  2736 2215-10-349     10    349.0       2430.    
  2737 2215-22-68      22    68.00       2427.    
  2738 2215-31-335     31    335.0       2427.    
  2739 2215-33-1       33   1.0000       2433.    
  2740 2215-39-60      39    60.00       2425.    
  2741 2215-42-356     42    356.0       2425.    
  2742 2215-48-336     48    336.0       2428.    
  2743 2164-48-337     48    337.0       2411.    
  2744 2164-56-24      56    24.00       2419.    
  2745 2164-61-54      61    54.00       2410.    
  2746 2164-66-24      66    24.00       2417.    
  2747 2164-71-41      71    41.00       2416.    
  2748 2135-48-337     48    337.0       2421.    
     MULTIPLE LAYERS AND PROPORTIONS :    1, 0.74       2, 0.26
  2749 2135-56-24      56    24.00       2428.    
     MULTIPLE LAYERS AND PROPORTIONS :    1, 0.74       2, 0.26
  2750 2135-61-55      61    55.00       2415.    
     MULTIPLE LAYERS AND PROPORTIONS :    1, 0.74       2, 0.26
  2751 2135-66-26      66    26.00       2427.    
     MULTIPLE LAYERS AND PROPORTIONS :    1, 0.74       2, 0.26
  2752 2135-71-42      71    42.00       2427.    
     MULTIPLE LAYERS AND PROPORTIONS :    1, 0.74       2, 0.26
  2753 2238-56-23      56    23.00       2443.    
  2754 2334-22-67      22    67.00       2386.    
  2755 2334-26-349     26    349.0       2386.    
  2756 2334-33-60      33    60.00       2381.    
  2757 2334-42-363     42    363.0       2387.    
  2758 2334-48-274     48    274.0       2394.    
  2759 2334-55-321     55    321.0       2395.    
  2760 2334-60-319     60    319.0       2396.    
  2761 2334-65-326     65    326.0       2388.    
  2762 2334-71-14      71    14.00       2393.    
  2763 2334-71-42      71    42.00       2391.    
  2764 2334-71-365     71    365.0       2396.    
  2765 2334-71-365     71    365.0       2387.    
  2766 2225-55-321     55    321.0       2384.    
  2767 2223-55-279     55    279.0       2360.    
  2768 2223-61-47      61    47.00       2357.    
  2769 2223-66-32      66    32.00       2375.    
  2770 2223-71-14      71    14.00       2337.    
  2771 2223-71-365     71    365.0       2364.    
  2772 2224-55-321     55    321.0       2382.    
  2773 2224-61-47      61    47.00       2358.    
  2774 2224-66-32      66    32.00       2371.    
  2775 2142-48-274     48    274.0       2338.    
  2776 2150-48-306     48    306.0       2340.    
  2777 2150-55-321     55    321.0       2336.    
  2778 2141-48-274     48    274.0       2337.    
  2779 2141-55-321     55    321.0       2328.    
  2780 2141-61-47      61    47.00       2327.    
  2781 2141-71-14      71    14.00       2313.    
  2782 2141-71-365     71    365.0       2336.    
  2783 2140-48-274     48    274.0       2358.    
  2784 2140-55-321     55    321.0       2348.    
  2785 2140-66-18      66    18.00       2338.    
     MULTIPLE LAYERS AND PROPORTIONS :    1, 0.62       2, 0.38
  2786 2209-27-11      27    11.00       2417.    
  2787 2209-31-351     31    351.0       2416.    
  2788 2209-37-343     37    343.0       2408.    
  2789 2208-56-23      56    23.00       2417.    
  2790 2208-60-321     60    321.0       2410.    
  2791 2208-65-299     65    299.0       2408.    
  2792 2208-71-32      71    32.00       2408.    
  2793 2208-71-365     71    365.0       2407.    
  2794 2206-48-274     48    274.0       2414.    
     MULTIPLE LAYERS AND PROPORTIONS :    1, 0.74       2, 0.26
  2795 2206-55-321     55    321.0       2407.    
     MULTIPLE LAYERS AND PROPORTIONS :    1, 0.74       2, 0.26
  2796 2206-61-47      61    47.00       2405.    
     MULTIPLE LAYERS AND PROPORTIONS :    1, 0.74       2, 0.26
  2797 2206-71-14      71    14.00       2394.    
     MULTIPLE LAYERS AND PROPORTIONS :    1, 0.74       2, 0.26
  2798 2206-71-365     71    365.0       2399.    
     MULTIPLE LAYERS AND PROPORTIONS :    1, 0.74       2, 0.26
  2799 2182-55-321     55    321.0       2385.    
  2800 2174-55-279     55    279.0       2360.    
  2801 2174-60-319     60    319.0       2380.    
  2802 2174-65-326     65    326.0       2355.    
  2803 2174-71-14      71    14.00       2338.    
  2804 2174-71-365     71    365.0       2373.    
  2805 2181-55-321     55    321.0       2368.    
  2806 2181-61-47      61    47.00       2366.    
  2807 2139-1-357       1    357.0       2407.    
 Observation within a steady-state time step has been moved to the end of the time step.
  2808 2138-48-274     48    274.0       2392.    
  2809 2138-55-321     55    321.0       2390.    
  2810 2138-61-47      61    47.00       2391.    
  2811 2138-66-24      66    24.00       2397.    
  2812 2138-71-14      71    14.00       2366.    
  2813 2138-71-365     71    365.0       2393.    
  2814 2253-16-361     16    361.0       2366.    
  2815 2251-48-274     48    274.0       2395.    
     MULTIPLE LAYERS AND PROPORTIONS :    1, 0.95       2, 0.05
  2816 2251-55-321     55    321.0       2391.    
     MULTIPLE LAYERS AND PROPORTIONS :    1, 0.95       2, 0.05
  2817 2314-12-116     12    116.0       2371.    
     MULTIPLE LAYERS AND PROPORTIONS :    1, 0.80       2, 0.20
  2818 2314-22-67      22    67.00       2372.    
  2819 2314-33-60      33    60.00       2367.    
  2820 2290-7-322       7    322.0       2357.    
  2821 2290-10-32      10    32.00       2363.    
  2822 2290-42-364     42    364.0       2348.    
  2823 2290-48-355     48    355.0       2356.    
  2824 2290-55-348     55    348.0       2378.    
  2825 2290-65-354     65    354.0       2361.    
  2826 2290-71-42      71    42.00       2379.    
  2827 2290-71-365     71    365.0       2357.    
  2828 2286-42-357     42    357.0       2345.    
     MULTIPLE LAYERS AND PROPORTIONS :    1, 0.50       2, 0.50
  2829 2286-48-355     48    355.0       2344.    
     MULTIPLE LAYERS AND PROPORTIONS :    1, 0.50       2, 0.50
  2830 2286-61-3       61    3.000       2351.    
     MULTIPLE LAYERS AND PROPORTIONS :    1, 0.50       2, 0.50
  2831 2286-66-45      66    45.00       2371.    
     MULTIPLE LAYERS AND PROPORTIONS :    1, 0.50       2, 0.50
  2832 2287-42-357     42    357.0       2358.    
  2833 2287-61-3       61    3.000       2363.    
  2834 2287-71-42      71    42.00       2383.    
  2835 2287-71-365     71    365.0       2360.    
  2836 2278-22-67      22    67.00       2363.    
     MULTIPLE LAYERS AND PROPORTIONS :    1, 0.28       2, 0.72
  2837 2278-26-362     26    362.0       2379.    
     MULTIPLE LAYERS AND PROPORTIONS :    1, 0.28       2, 0.72
  2838 2278-31-335     31    335.0       2357.    
     MULTIPLE LAYERS AND PROPORTIONS :    1, 0.28       2, 0.72
  2839 2278-33-60      33    60.00       2364.    
     MULTIPLE LAYERS AND PROPORTIONS :    1, 0.28       2, 0.72
  2840 2278-48-274     48    274.0       2365.    
     MULTIPLE LAYERS AND PROPORTIONS :    1, 0.28       2, 0.72
  2841 2129-66-40      66    40.00       2194.    
  2842 2129-71-42      71    42.00       2229.    
  2843 2129-71-365     71    365.0       2235.    
  2844 2146-7-1         7   1.0000       2375.    
  2845 2146-11-86      11    86.00       2363.    
  2846 2146-22-67      22    67.00       2347.    
  2847 2146-37-263     37    263.0       2287.    
  2848 2147-42-363     42    363.0       2279.    
  2849 2147-48-362     48    362.0       2265.    
  2850 2147-55-349     55    349.0       2260.    
  2851 2145-2-132       2    132.0       2385.    
  2852 2144-2-132       2    132.0       2390.    
  2853 2126-48-274     48    274.0       2297.    
  2854 2126-55-321     55    321.0       2282.    
  2855 2126-61-47      61    47.00       2279.    
  2856 2126-71-14      71    14.00       2274.    
  2857 2126-71-365     71    365.0       2290.    
  2858 2315-10-262     10    262.0       2351.    
  2859 2288-10-262     10    262.0       2361.    
  2860 2248-56-23      56    23.00       2268.    
     MULTIPLE LAYERS AND PROPORTIONS :    1, 0.52       2, 0.48
  2861 2239-16-361     16    361.0       2347.    
  2862 2239-22-32      22    32.00       2337.    
  2863 2239-27-10      27   10.000       2328.    
  2864 2239-56-23      56    23.00       2274.    
  2865 2267-56-25      56    25.00       2257.    
  2866 2255-22-65      22    65.00       2326.    
  2867 2255-32-60      32    60.00       2302.    
  2868 2255-38-60      38    60.00       2294.    
  2869 2240-56-25      56    25.00       2269.    
  2870 2240-66-32      66    32.00       2195.    
  2871 2240-71-54      71    54.00       2245.    
  2872 2114-61-49      61    49.00       2224.    
  2873 2114-66-40      66    40.00       2195.    
  2874 2114-71-42      71    42.00       2225.    
  2875 2114-71-365     71    365.0       2238.    
  2876 2191-56-23      56    23.00       2242.    
  2877 2191-61-61      61    61.00       2224.    
  2878 2191-66-25      66    25.00       2194.    
  2879 2210-48-334     48    334.0       2283.    
  2880 2210-55-321     55    321.0       2270.    
  2881 2210-61-47      61    47.00       2259.    
  2882 2210-66-24      66    24.00       2229.    
  2883 2210-71-42      71    42.00       2225.    
  2884 2210-71-365     71    365.0       2238.    
  2885 2162-48-274     48    274.0       2254.    
  2886 2162-65-354     65    354.0       2184.    
  2887 2162-71-42      71    42.00       2213.    
  2888 2162-71-365     71    365.0       2224.    
  2889 2298-61-48      61    48.00       2210.    
     MULTIPLE LAYERS AND PROPORTIONS :    1, 0.14       2, 0.54       3, 0.32
  2890 2298-66-24      66    24.00       2176.    
     MULTIPLE LAYERS AND PROPORTIONS :    1, 0.14       2, 0.54       3, 0.32
  2891 2298-71-14      71    14.00       2191.    
     MULTIPLE LAYERS AND PROPORTIONS :    1, 0.14       2, 0.54       3, 0.32
  2892 2298-71-365     71    365.0       2205.    
     MULTIPLE LAYERS AND PROPORTIONS :    1, 0.14       2, 0.54       3, 0.32
  2893 2250-22-69      22    69.00       2301.    
  2894 2250-27-61      27    61.00       2307.    
  2895 2227-42-363     42    363.0       2240.    
     MULTIPLE LAYERS AND PROPORTIONS :    1, 0.53       2, 0.27       3, 0.20
  2896 2227-48-365     48    365.0       2217.    
     MULTIPLE LAYERS AND PROPORTIONS :    1, 0.53       2, 0.27       3, 0.20
  2897 2227-55-349     55    349.0       2199.    
     MULTIPLE LAYERS AND PROPORTIONS :    1, 0.53       2, 0.27       3, 0.20
  2898 2227-61-54      61    54.00       2174.    
     MULTIPLE LAYERS AND PROPORTIONS :    1, 0.53       2, 0.27       3, 0.20
  2899 2227-66-45      66    45.00       2151.    
     MULTIPLE LAYERS AND PROPORTIONS :    1, 0.53       2, 0.27       3, 0.20
  2900 2227-71-49      71    49.00       2170.    
     MULTIPLE LAYERS AND PROPORTIONS :    1, 0.53       2, 0.27       3, 0.20
  2901 2227-71-365     71    365.0       2178.    
     MULTIPLE LAYERS AND PROPORTIONS :    1, 0.53       2, 0.28       3, 0.19
  2902 2152-22-68      22    68.00       2316.    
  2903 2263-10-144     10    144.0       2292.    
  2904 2276-22-61      22    61.00       2265.    
     MULTIPLE LAYERS AND PROPORTIONS :    1, 0.88       2, 0.12
  2905 2276-26-301     26    301.0       2254.    
     MULTIPLE LAYERS AND PROPORTIONS :    1, 0.88       2, 0.12
  2906 2276-48-362     48    362.0       2208.    
     MULTIPLE LAYERS AND PROPORTIONS :    1, 0.88       2, 0.12
  2907 2276-55-349     55    349.0       2193.    
     MULTIPLE LAYERS AND PROPORTIONS :    1, 0.88       2, 0.12
  2908 2276-61-33      61    33.00       2176.    
     MULTIPLE LAYERS AND PROPORTIONS :    1, 0.88       2, 0.12
  2909 2276-66-32      66    32.00       2153.    
     MULTIPLE LAYERS AND PROPORTIONS :    1, 0.88       2, 0.12
  2910 2276-71-14      71    14.00       2154.    
     MULTIPLE LAYERS AND PROPORTIONS :    1, 0.88       2, 0.12
  2911 2276-71-41      71    41.00       2163.    
     MULTIPLE LAYERS AND PROPORTIONS :    1, 0.88       2, 0.12
  2912 2276-71-365     71    365.0       2168.    
     MULTIPLE LAYERS AND PROPORTIONS :    1, 0.88       2, 0.12
  2913 2276-71-365     71    365.0       2168.    
     MULTIPLE LAYERS AND PROPORTIONS :    1, 0.88       2, 0.12
  2914 2229-61-33      61    33.00       2163.    
  2915 2229-66-32      66    32.00       2144.    
  2916 2229-71-14      71    14.00       2160.    
  2917 2229-71-41      71    41.00       2160.    
  2918 2229-71-365     71    365.0       2165.    
  2919 2229-71-365     71    365.0       2165.    
  2920 2235-42-335     42    335.0       2226.    
  2921 2130-8-49        8    49.00       2299.    
  2922 2130-12-58      12    58.00       2285.    
  2923 2130-17-87      17    87.00       2271.    
  2924 2130-22-79      22    79.00       2267.    
  2925 2130-32-60      32    60.00       2246.    
  2926 2130-42-363     42    363.0       2218.    
  2927 2130-48-362     48    362.0       2201.    
  2928 2153-48-362     48    362.0       2195.    
     MULTIPLE LAYERS AND PROPORTIONS :    1, 0.54       2, 0.46
  2929 2153-55-349     55    349.0       2174.    
     MULTIPLE LAYERS AND PROPORTIONS :    1, 0.54       2, 0.46
  2930 2153-61-33      61    33.00       2157.    
     MULTIPLE LAYERS AND PROPORTIONS :    1, 0.54       2, 0.46
  2931 2153-71-41      71    41.00       2153.    
     MULTIPLE LAYERS AND PROPORTIONS :    1, 0.54       2, 0.46
  2932 2153-71-365     71    365.0       2157.    
     MULTIPLE LAYERS AND PROPORTIONS :    1, 0.54       2, 0.46
  2933 2217-66-32      66    32.00       2149.    
  2934 2231-22-65      22    65.00       2279.    
  2935 2231-42-363     42    363.0       2229.    
  2936 2231-48-362     48    362.0       2209.    
  2937 2231-55-349     55    349.0       2193.    
  2938 2231-61-54      61    54.00       2170.    
  2939 2231-66-49      66    49.00       2150.    
  2940 2231-71-41      71    41.00       2166.    
  2941 2231-71-365     71    365.0       2172.    
  2942 2228-42-363     42    363.0       2226.    
     MULTIPLE LAYERS AND PROPORTIONS :    1, 0.54       2, 0.46
  2943 2228-48-362     48    362.0       2207.    
     MULTIPLE LAYERS AND PROPORTIONS :    1, 0.54       2, 0.46
  2944 2228-55-349     55    349.0       2190.    
     MULTIPLE LAYERS AND PROPORTIONS :    1, 0.54       2, 0.46
  2945 2228-61-54      61    54.00       2167.    
     MULTIPLE LAYERS AND PROPORTIONS :    1, 0.54       2, 0.46
  2946 2228-66-49      66    49.00       2146.    
     MULTIPLE LAYERS AND PROPORTIONS :    1, 0.54       2, 0.46
  2947 2228-71-41      71    41.00       2163.    
     MULTIPLE LAYERS AND PROPORTIONS :    1, 0.54       2, 0.46
  2948 2228-71-365     71    365.0       2169.    
     MULTIPLE LAYERS AND PROPORTIONS :    1, 0.54       2, 0.46
  2949 2056-12-58      12    58.00       2310.    
  2950 2056-22-66      22    66.00       2295.    
  2951 2056-27-61      27    61.00       2284.    
  2952 2032-7-32        7    32.00       2315.    
  2953 2032-12-58      12    58.00       2298.    
  2954 2032-32-83      32    83.00       2257.    
  2955 2033-42-363     42    363.0       2223.    
     MULTIPLE LAYERS AND PROPORTIONS :    1, 0.56       2, 0.44
  2956 2033-48-362     48    362.0       2197.    
     MULTIPLE LAYERS AND PROPORTIONS :    1, 0.56       2, 0.44
  2957 2033-56-34      56    34.00       2161.    
     MULTIPLE LAYERS AND PROPORTIONS :    1, 0.56       2, 0.44
  2958 2033-61-56      61    56.00       2153.    
     MULTIPLE LAYERS AND PROPORTIONS :    1, 0.56       2, 0.44
  2959 2033-66-54      66    54.00       2142.    
     MULTIPLE LAYERS AND PROPORTIONS :    1, 0.56       2, 0.44
  2960 2033-71-49      71    49.00       2159.    
     MULTIPLE LAYERS AND PROPORTIONS :    1, 0.56       2, 0.44
  2961 2033-71-365     71    365.0       2161.    
     MULTIPLE LAYERS AND PROPORTIONS :    1, 0.56       2, 0.44
  2962 2000-37-34      37    34.00       2238.    
  2963 2000-55-349     55    349.0       2170.    
  2964 2004-48-357     48    357.0       2201.    
  2965 2004-71-49      71    49.00       2165.    
  2966 2004-71-365     71    365.0       2168.    
  2967 2019-17-82      17    82.00       2303.    
     MULTIPLE LAYERS AND PROPORTIONS :    1, 0.69       2, 0.31
  2968 2019-22-69      22    69.00       2296.    
     MULTIPLE LAYERS AND PROPORTIONS :    1, 0.69       2, 0.31
  2969 2019-42-335     42    335.0       2229.    
     MULTIPLE LAYERS AND PROPORTIONS :    1, 0.69       2, 0.31
  2970 2019-48-365     48    365.0       2203.    
     MULTIPLE LAYERS AND PROPORTIONS :    1, 0.69       2, 0.31
  2971 2019-66-40      66    40.00       2144.    
     MULTIPLE LAYERS AND PROPORTIONS :    1, 0.69       2, 0.31
  2972 2019-71-49      71    49.00       2164.    
     MULTIPLE LAYERS AND PROPORTIONS :    1, 0.69       2, 0.31
  2973 2019-71-365     71    365.0       2169.    
     MULTIPLE LAYERS AND PROPORTIONS :    1, 0.69       2, 0.31
  2974 2015-66-40      66    40.00       2141.    
  2975 2015-71-49      71    49.00       2161.    
  2976 2015-71-365     71    365.0       2166.    
  2977 2023-42-363     42    363.0       2228.    
     MULTIPLE LAYERS AND PROPORTIONS :    1, 0.32       2, 0.57       3, 0.11
  2978 2023-48-365     48    365.0       2202.    
     MULTIPLE LAYERS AND PROPORTIONS :    1, 0.32       2, 0.57       3, 0.11
  2979 2023-55-349     55    349.0       2167.    
     MULTIPLE LAYERS AND PROPORTIONS :    1, 0.32       2, 0.57       3, 0.11
  2980 2023-61-54      61    54.00       2153.    
     MULTIPLE LAYERS AND PROPORTIONS :    1, 0.32       2, 0.57       3, 0.11
  2981 2023-71-49      71    49.00       2161.    
     MULTIPLE LAYERS AND PROPORTIONS :    1, 0.32       2, 0.57       3, 0.11
  2982 2023-71-365     71    365.0       2166.    
     MULTIPLE LAYERS AND PROPORTIONS :    1, 0.32       2, 0.57       3, 0.11
  2983 2060-48-365     48    365.0       2222.    
     MULTIPLE LAYERS AND PROPORTIONS :    1, 0.46       2, 0.54
  2984 2060-55-356     55    356.0       2188.    
     MULTIPLE LAYERS AND PROPORTIONS :    1, 0.46       2, 0.54
  2985 2060-61-54      61    54.00       2164.    
     MULTIPLE LAYERS AND PROPORTIONS :    1, 0.46       2, 0.54
  2986 2060-66-19      66    19.00       2151.    
     MULTIPLE LAYERS AND PROPORTIONS :    1, 0.46       2, 0.54
  2987 2060-71-42      71    42.00       2177.    
     MULTIPLE LAYERS AND PROPORTIONS :    1, 0.46       2, 0.54
  2988 2060-71-365     71    365.0       2185.    
     MULTIPLE LAYERS AND PROPORTIONS :    1, 0.46       2, 0.54
  2989 2115-22-66      22    66.00       2303.    
  2990 2105-42-363     42    363.0       2241.    
     MULTIPLE LAYERS AND PROPORTIONS :    1, 0.49       2, 0.51
  2991 2105-48-362     48    362.0       2214.    
     MULTIPLE LAYERS AND PROPORTIONS :    1, 0.49       2, 0.51
  2992 2105-56-33      56    33.00       2183.    
     MULTIPLE LAYERS AND PROPORTIONS :    1, 0.49       2, 0.51
  2993 2105-61-33      61    33.00       2164.    
     MULTIPLE LAYERS AND PROPORTIONS :    1, 0.49       2, 0.51
  2994 2105-66-32      66    32.00       2144.    
     MULTIPLE LAYERS AND PROPORTIONS :    1, 0.49       2, 0.51
  2995 2105-71-42      71    42.00       2167.    
     MULTIPLE LAYERS AND PROPORTIONS :    1, 0.49       2, 0.51
  2996 2105-71-365     71    365.0       2174.    
     MULTIPLE LAYERS AND PROPORTIONS :    1, 0.49       2, 0.51
  2997 2098-65-354     65    354.0       2136.    
  2998 2098-71-42      71    42.00       2167.    
  2999 2098-71-365     71    365.0       2174.    
  3000 2103-42-363     42    363.0       2240.    
     MULTIPLE LAYERS AND PROPORTIONS :    1, 0.64       2, 0.36
  3001 2103-48-362     48    362.0       2214.    
     MULTIPLE LAYERS AND PROPORTIONS :    1, 0.64       2, 0.36
  3002 2103-61-33      61    33.00       2163.    
     MULTIPLE LAYERS AND PROPORTIONS :    1, 0.64       2, 0.36
  3003 2103-66-32      66    32.00       2143.    
     MULTIPLE LAYERS AND PROPORTIONS :    1, 0.64       2, 0.36
  3004 2103-71-42      71    42.00       2166.    
     MULTIPLE LAYERS AND PROPORTIONS :    1, 0.64       2, 0.36
  3005 2103-71-365     71    365.0       2173.    
     MULTIPLE LAYERS AND PROPORTIONS :    1, 0.64       2, 0.36
  3006 2055-22-66      22    66.00       2304.    
  3007 2055-32-83      32    83.00       2278.    
  3008 2014-12-66      12    66.00       2336.    
  3009 2014-22-69      22    69.00       2316.    
  3010 2014-27-3       27    3.000       2305.    
  3011 2014-42-363     42    363.0       2244.    
  3012 2014-48-357     48    357.0       2217.    
  3013 2014-66-19      66    19.00       2145.    
  3014 2014-71-42      71    42.00       2170.    
  3015 2014-71-365     71    365.0       2177.    
  3016 2013-42-363     42    363.0       2241.    
     MULTIPLE LAYERS AND PROPORTIONS :    1, 0.30       2, 0.70
  3017 2013-48-357     48    357.0       2214.    
     MULTIPLE LAYERS AND PROPORTIONS :    1, 0.30       2, 0.70
  3018 2013-55-350     55    350.0       2174.    
     MULTIPLE LAYERS AND PROPORTIONS :    1, 0.30       2, 0.70
  3019 2013-61-33      61    33.00       2152.    
     MULTIPLE LAYERS AND PROPORTIONS :    1, 0.30       2, 0.70
  3020 2013-66-19      66    19.00       2142.    
     MULTIPLE LAYERS AND PROPORTIONS :    1, 0.30       2, 0.70
  3021 2013-71-42      71    42.00       2167.    
     MULTIPLE LAYERS AND PROPORTIONS :    1, 0.30       2, 0.70
  3022 2013-71-365     71    365.0       2174.    
     MULTIPLE LAYERS AND PROPORTIONS :    1, 0.30       2, 0.70
  3023 1974-22-79      22    79.00       2318.    
  3024 1974-26-307     26    307.0       2301.    
  3025 1974-42-363     42    363.0       2246.    
  3026 1974-48-357     48    357.0       2218.    
  3027 1966-42-363     42    363.0       2245.    
     MULTIPLE LAYERS AND PROPORTIONS :    1, 0.76       2, 0.24
  3028 1966-48-350     48    350.0       2223.    
     MULTIPLE LAYERS AND PROPORTIONS :    1, 0.76       2, 0.24
  3029 1966-55-350     55    350.0       2165.    
     MULTIPLE LAYERS AND PROPORTIONS :    1, 0.76       2, 0.24
  3030 1966-61-33      61    33.00       2154.    
     MULTIPLE LAYERS AND PROPORTIONS :    1, 0.76       2, 0.24
  3031 1966-66-19      66    19.00       2145.    
     MULTIPLE LAYERS AND PROPORTIONS :    1, 0.76       2, 0.24
  3032 1966-71-49      71    49.00       2171.    
     MULTIPLE LAYERS AND PROPORTIONS :    1, 0.76       2, 0.24
  3033 1966-71-365     71    365.0       2177.    
     MULTIPLE LAYERS AND PROPORTIONS :    1, 0.76       2, 0.24
  3034 1972-71-49      71    49.00       2170.    
  3035 1972-71-365     71    365.0       2176.    
  3036 2036-11-305     11    305.0       2344.    
  3037 2035-48-365     48    365.0       2231.    
     MULTIPLE LAYERS AND PROPORTIONS :    1, 0.41       2, 0.44       3, 0.15
  3038 2035-56-18      56    18.00       2185.    
     MULTIPLE LAYERS AND PROPORTIONS :    1, 0.41       2, 0.44       3, 0.15
  3039 2035-61-54      61    54.00       2162.    
     MULTIPLE LAYERS AND PROPORTIONS :    1, 0.41       2, 0.44       3, 0.15
  3040 2035-66-45      66    45.00       2155.    
     MULTIPLE LAYERS AND PROPORTIONS :    1, 0.41       2, 0.44       3, 0.15
  3041 2035-71-42      71    42.00       2184.    
     MULTIPLE LAYERS AND PROPORTIONS :    1, 0.41       2, 0.44       3, 0.15
  3042 2035-71-365     71    365.0       2192.    
     MULTIPLE LAYERS AND PROPORTIONS :    1, 0.41       2, 0.44       3, 0.15
  3043 1999-22-69      22    69.00       2326.    
  3044 1999-26-349     26    349.0       2314.    
  3045 1999-32-73      32    73.00       2299.    
  3046 1999-42-363     42    363.0       2250.    
  3047 1999-48-357     48    357.0       2223.    
  3048 1999-55-353     55    353.0       2185.    
  3049 1999-60-309     60    309.0       2168.    
  3050 1999-66-28      66    28.00       2150.    
  3051 1999-71-42      71    42.00       2176.    
  3052 1999-71-365     71    365.0       2184.    
  3053 1957-12-66      12    66.00       2349.    
  3054 1957-22-79      22    79.00       2326.    
  3055 1957-27-3       27    3.000       2317.    
  3056 1957-32-60      32    60.00       2301.    
  3057 1957-42-363     42    363.0       2251.    
  3058 1957-48-357     48    357.0       2224.    
  3059 1957-55-353     55    353.0       2183.    
  3060 1957-60-306     60    306.0       2159.    
  3061 1957-66-19      66    19.00       2149.    
  3062 1957-71-42      71    42.00       2176.    
  3063 1957-71-365     71    365.0       2183.    
  3064 2125-48-306     48    306.0       2306.    
  3065 2125-55-321     55    321.0       2297.    
  3066 2086-48-274     48    274.0       2286.    
  3067 2086-56-48      56    48.00       2275.    
  3068 2086-61-47      61    47.00       2260.    
  3069 2086-66-26      66    26.00       2236.    
  3070 2086-71-14      71    14.00       2266.    
  3071 2086-71-365     71    365.0       2276.    
  3072 2102-26-349     26    349.0       2337.    
     MULTIPLE LAYERS AND PROPORTIONS :    1, 0.19       2, 0.81
  3073 2102-48-274     48    274.0       2272.    
     MULTIPLE LAYERS AND PROPORTIONS :    1, 0.19       2, 0.81
  3074 2102-55-321     55    321.0       2250.    
     MULTIPLE LAYERS AND PROPORTIONS :    1, 0.19       2, 0.81
  3075 2102-60-319     60    319.0       2236.    
     MULTIPLE LAYERS AND PROPORTIONS :    1, 0.19       2, 0.81
  3076 2102-66-1       66   1.0000       2213.    
     MULTIPLE LAYERS AND PROPORTIONS :    1, 0.19       2, 0.81
  3077 2102-71-42      71    42.00       2243.    
     MULTIPLE LAYERS AND PROPORTIONS :    1, 0.19       2, 0.81
  3078 2102-71-365     71    365.0       2253.    
     MULTIPLE LAYERS AND PROPORTIONS :    1, 0.19       2, 0.81
  3079 2054-39-31      39    31.00       2277.    
     MULTIPLE LAYERS AND PROPORTIONS :    1, 0.31       2, 0.69
  3080 2054-48-357     48    357.0       2251.    
     MULTIPLE LAYERS AND PROPORTIONS :    1, 0.31       2, 0.69
  3081 2054-55-349     55    349.0       2217.    
     MULTIPLE LAYERS AND PROPORTIONS :    1, 0.31       2, 0.69
  3082 2054-61-3       61    3.000       2190.    
     MULTIPLE LAYERS AND PROPORTIONS :    1, 0.31       2, 0.69
  3083 2054-66-40      66    40.00       2178.    
     MULTIPLE LAYERS AND PROPORTIONS :    1, 0.31       2, 0.69
  3084 2054-71-42      71    42.00       2206.    
     MULTIPLE LAYERS AND PROPORTIONS :    1, 0.31       2, 0.69
  3085 2054-71-365     71    365.0       2214.    
     MULTIPLE LAYERS AND PROPORTIONS :    1, 0.31       2, 0.69
  3086 2063-22-69      22    69.00       2354.    
  3087 1996-11-86      11    86.00       2369.    
  3088 1997-22-60      22    60.00       2344.    
  3089 1997-32-60      32    60.00       2306.    
  3090 1997-55-349     55    349.0       2199.    
  3091 1997-65-354     65    354.0       2163.    
  3092 1997-71-42      71    42.00       2191.    
  3093 1997-71-365     71    365.0       2199.    
  3094 1949-48-334     48    334.0       2226.    
  3095 1949-56-17      56    17.00       2197.    
  3096 1942-56-17      56    17.00       2198.    
     MULTIPLE LAYERS AND PROPORTIONS :    1, 0.16       2, 0.84
  3097 1942-61-53      61    53.00       2161.    
     MULTIPLE LAYERS AND PROPORTIONS :    1, 0.16       2, 0.84
  3098 1942-66-19      66    19.00       2167.    
     MULTIPLE LAYERS AND PROPORTIONS :    1, 0.16       2, 0.84
  3099 1942-71-42      71    42.00       2192.    
     MULTIPLE LAYERS AND PROPORTIONS :    1, 0.16       2, 0.84
  3100 1942-71-365     71    365.0       2199.    
     MULTIPLE LAYERS AND PROPORTIONS :    1, 0.16       2, 0.84
  3101 1943-33-314     33    314.0       2310.    
  3102 2078-65-355     65    355.0       2293.    
  3103 2078-71-42      71    42.00       2295.    
  3104 2078-71-365     71    365.0       2311.    
  3105 2072-16-364     16    364.0       2386.    
  3106 2072-27-10      27   10.000       2370.    
  3107 2030-42-362     42    362.0       2302.    
     MULTIPLE LAYERS AND PROPORTIONS :    1, 0.56       2, 0.44
  3108 2030-48-357     48    357.0       2279.    
     MULTIPLE LAYERS AND PROPORTIONS :    1, 0.56       2, 0.44
  3109 2030-55-348     55    348.0       2271.    
     MULTIPLE LAYERS AND PROPORTIONS :    1, 0.56       2, 0.44
  3110 2030-61-3       61    3.000       2261.    
     MULTIPLE LAYERS AND PROPORTIONS :    1, 0.56       2, 0.44
  3111 2030-65-355     65    355.0       2258.    
     MULTIPLE LAYERS AND PROPORTIONS :    1, 0.56       2, 0.44
  3112 2030-71-42      71    42.00       2270.    
     MULTIPLE LAYERS AND PROPORTIONS :    1, 0.56       2, 0.44
  3113 2030-71-365     71    365.0       2276.    
     MULTIPLE LAYERS AND PROPORTIONS :    1, 0.56       2, 0.44
  3114 2082-22-32      22    32.00       2373.    
     MULTIPLE LAYERS AND PROPORTIONS :    1, 0.77       2, 0.23
  3115 2081-8-101       8    101.0       2392.    
  3116 2081-12-109     12    109.0       2384.    
  3117 2081-22-68      22    68.00       2370.    
  3118 2081-42-364     42    364.0       2318.    
  3119 2081-56-18      56    18.00       2301.    
  3120 2081-71-13      71    13.00       2288.    
  3121 2081-71-365     71    365.0       2286.    
  3122 2101-8-51        8    51.00       2389.    
  3123 2101-11-86      11    86.00       2381.    
  3124 2101-22-32      22    32.00       2365.    
  3125 2101-27-10      27   10.000       2363.    
  3126 1986-27-81      27    81.00       2345.    
     MULTIPLE LAYERS AND PROPORTIONS :    1, 0.59       2, 0.41
  3127 1986-42-362     42    362.0       2280.    
     MULTIPLE LAYERS AND PROPORTIONS :    1, 0.59       2, 0.41
  3128 1986-48-334     48    334.0       2249.    
     MULTIPLE LAYERS AND PROPORTIONS :    1, 0.59       2, 0.41
  3129 1986-55-321     55    321.0       2221.    
     MULTIPLE LAYERS AND PROPORTIONS :    1, 0.59       2, 0.41
  3130 1986-61-47      61    47.00       2189.    
     MULTIPLE LAYERS AND PROPORTIONS :    1, 0.59       2, 0.41
  3131 1986-66-32      66    32.00       2184.    
     MULTIPLE LAYERS AND PROPORTIONS :    1, 0.59       2, 0.41
  3132 1986-71-14      71    14.00       2211.    
     MULTIPLE LAYERS AND PROPORTIONS :    1, 0.59       2, 0.41
  3133 1986-71-42      71    42.00       2210.    
     MULTIPLE LAYERS AND PROPORTIONS :    1, 0.59       2, 0.41
  3134 1986-71-365     71    365.0       2216.    
     MULTIPLE LAYERS AND PROPORTIONS :    1, 0.59       2, 0.41
  3135 1986-71-365     71    365.0       2216.    
     MULTIPLE LAYERS AND PROPORTIONS :    1, 0.59       2, 0.41
  3136 1956-32-83      32    83.00       2331.    
  3137 1956-37-34      37    34.00       2320.    
  3138 1948-48-274     48    274.0       2256.    
     MULTIPLE LAYERS AND PROPORTIONS :    1, 0.38       2, 0.62
  3139 2117-8-182       8    182.0       2421.    
  3140 2093-66-26      66    26.00       2423.    
     MULTIPLE LAYERS AND PROPORTIONS :    1, 0.55       2, 0.45
  3141 2071-16-364     16    364.0       2400.    
  3142 2053-56-33      56    33.00       2294.    
  3143 2053-65-355     65    355.0       2269.    
  3144 2053-71-43      71    43.00       2283.    
  3145 2053-71-365     71    365.0       2293.    
  3146 2046-61-3       61    3.000       2256.    
  3147 2046-65-355     65    355.0       2242.    
  3148 2046-71-49      71    49.00       2264.    
  3149 2046-71-365     71    365.0       2270.    
  3150 2029-66-45      66    45.00       2227.    
  3151 2029-71-43      71    43.00       2250.    
  3152 2029-71-365     71    365.0       2255.    
  3153 2026-71-43      71    43.00       2248.    
  3154 2026-71-365     71    365.0       2253.    
  3155 2028-71-43      71    43.00       2251.    
     MULTIPLE LAYERS AND PROPORTIONS :    1, 0.85       2, 0.15
  3156 2028-71-365     71    365.0       2256.    
     MULTIPLE LAYERS AND PROPORTIONS :    1, 0.85       2, 0.15
  3157 2048-56-33      56    33.00       2303.    
  3158 2048-65-355     65    355.0       2301.    
  3159 2048-71-49      71    49.00       2296.    
  3160 2048-71-365     71    365.0       2315.    
  3161 2049-55-347     55    347.0       2298.    
  3162 2049-65-355     65    355.0       2294.    
  3163 2049-71-43      71    43.00       2294.    
  3164 2049-71-365     71    365.0       2308.    
  3165 1995-22-69      22    69.00       2376.    
  3166 1995-26-280     26    280.0       2360.    
  3167 1995-42-355     42    355.0       2298.    
  3168 1995-48-357     48    357.0       2272.    
  3169 1995-56-17      56    17.00       2243.    
  3170 1995-61-3       61    3.000       2216.    
  3171 1995-65-355     65    355.0       2209.    
  3172 1995-71-43      71    43.00       2234.    
  3173 1995-71-365     71    365.0       2238.    
  3174 1947-22-79      22    79.00       2368.    
  3175 1947-26-349     26    349.0       2357.    
  3176 1947-32-73      32    73.00       2330.    
  3177 1947-39-31      39    31.00       2300.    
  3178 1947-48-355     48    355.0       2258.    
  3179 1947-55-348     55    348.0       2229.    
  3180 1947-61-3       61    3.000       2202.    
  3181 1947-66-1       66   1.0000       2200.    
  3182 1947-71-43      71    43.00       2220.    
  3183 1947-71-365     71    365.0       2224.    
  3184 1985-56-25      56    25.00       2240.    
     MULTIPLE LAYERS AND PROPORTIONS :    1, 0.25       2, 0.75
  3185 1985-66-33      66    33.00       2212.    
     MULTIPLE LAYERS AND PROPORTIONS :    1, 0.25       2, 0.75
  3186 1985-71-42      71    42.00       2234.    
     MULTIPLE LAYERS AND PROPORTIONS :    1, 0.25       2, 0.75
  3187 2017-42-363     42    363.0       2298.    
     MULTIPLE LAYERS AND PROPORTIONS :    1, 0.47       2, 0.53
  3188 2017-48-337     48    337.0       2272.    
     MULTIPLE LAYERS AND PROPORTIONS :    1, 0.47       2, 0.53
  3189 2017-56-24      56    24.00       2232.    
     MULTIPLE LAYERS AND PROPORTIONS :    1, 0.47       2, 0.53
  3190 2017-61-55      61    55.00       2217.    
     MULTIPLE LAYERS AND PROPORTIONS :    1, 0.47       2, 0.53
  3191 2017-66-24      66    24.00       2211.    
     MULTIPLE LAYERS AND PROPORTIONS :    1, 0.47       2, 0.53
  3192 2017-71-42      71    42.00       2234.    
     MULTIPLE LAYERS AND PROPORTIONS :    1, 0.47       2, 0.53
  3193 1941-16-364     16    364.0       2401.    
  3194 2339-1-365       1    365.0       2477.    
 Observation within a steady-state time step has been moved to the end of the time step.
  3195 2339-12-113     12    113.0       2470.    
  3196 2339-22-74      22    74.00       2475.    
  3197 2435-11-80      11    80.00       2546.    
  3198 2435-22-72      22    72.00       2542.    
  3199 2443-48-336     48    336.0       2547.    
  3200 2443-56-20      56    20.00       2553.    
  3201 2443-61-54      61    54.00       2557.    
  3202 2443-66-24      66    24.00       2554.    
  3203 2443-71-42      71    42.00       2576.    
  3204 2379-22-74      22    74.00       2529.    
  3205 2379-42-356     42    356.0       2540.    
  3206 2379-48-336     48    336.0       2543.    
  3207 2379-56-19      56    19.00       2542.    
  3208 2379-61-55      61    55.00       2541.    
  3209 2379-66-27      66    27.00       2540.    
  3210 2379-71-42      71    42.00       2542.    
  3211 2375-42-357     42    357.0       2537.    
  3212 2375-48-350     48    350.0       2537.    
  3213 2375-55-348     55    348.0       2533.    
  3214 2375-61-48      61    48.00       2534.    
  3215 2375-65-350     65    350.0       2532.    
  3216 2375-71-55      71    55.00       2534.    
  3217 2375-71-365     71    365.0       2537.    
  3218 2338-22-74      22    74.00       2520.    
  3219 2338-48-355     48    355.0       2525.    
  3220 2338-56-5       56    5.000       2527.    
  3221 2338-61-48      61    48.00       2518.    
  3222 2338-65-350     65    350.0       2512.    
  3223 2338-71-55      71    55.00       2514.    
  3224 2338-71-365     71    365.0       2515.    
  3225 2205-22-74      22    74.00       2581.    
  3226 2200-22-85      22    85.00       2588.    
  3227 2189-61-55      61    55.00       2613.    
  3228 2173-61-60      61    60.00       2348.    
  3229 2323-22-74      22    74.00       2524.    
  3230 2193-48-336     48    336.0       2511.    
  3231 2193-56-19      56    19.00       2510.    
  3232 2193-61-55      61    55.00       2497.    
  3233 2193-66-27      66    27.00       2479.    
  3234 2193-71-42      71    42.00       2474.    
  3235 2100-12-113     12    113.0       2520.    
  3236 2100-22-75      22    75.00       2520.    
  3237 2100-42-357     42    357.0       2510.    
  3238 2100-48-336     48    336.0       2507.    
  3239 2100-55-347     55    347.0       2504.    
  3240 2100-61-48      61    48.00       2491.    
  3241 2100-65-356     65    356.0       2472.    
  3242 2100-71-42      71    42.00       2467.    
  3243 2100-71-54      71    54.00       2466.    
  3244 2100-71-365     71    365.0       2471.    
  3245 2324-27-11      27    11.00       2564.    
  3246 2324-38-91      38    91.00       2574.    
  3247 2324-42-356     42    356.0       2520.    
  3248 2324-56-20      56    20.00       2523.    
  3249 2324-66-28      66    28.00       2504.    
  3250 2324-71-63      71    63.00       2498.    
  3251 2285-22-74      22    74.00       2515.    
  3252 2285-32-67      32    67.00       2518.    
  3253 2285-38-60      38    60.00       2513.    
  3254 2285-71-63      71    63.00       2515.    
  3255 2119-42-357     42    357.0       2493.    
  3256 2119-48-355     48    355.0       2494.    
  3257 2119-55-348     55    348.0       2502.    
  3258 2119-61-49      61    49.00       2485.    
  3259 2119-71-55      71    55.00       2505.    
  3260 2119-71-365     71    365.0       2487.    
  3261 2184-33-274     33    274.0       2510.    
     MULTIPLE LAYERS AND PROPORTIONS :    1, 0.52       2, 0.48
  3262 2179-33-26      33    26.00       2473.    
  3263 2179-48-337     48    337.0       2408.    
  3264 2179-56-20      56    20.00       2452.    
  3265 2179-66-28      66    28.00       2429.    
  3266 2297-42-355     42    355.0       2484.    
  3267 2297-48-336     48    336.0       2484.    
  3268 2297-56-20      56    20.00       2475.    
  3269 2297-61-54      61    54.00       2466.    
  3270 2297-66-21      66    21.00       2455.    
  3271 2297-71-41      71    41.00       2466.    
  3272 2185-42-357     42    357.0       2455.    
  3273 2185-48-355     48    355.0       2455.    
  3274 2185-55-347     55    347.0       2455.    
  3275 2185-66-45      66    45.00       2454.    
  3276 2185-71-344     71    344.0       2454.    
  3277 2134-16-361     16    361.0       2462.    
  3278 2134-22-32      22    32.00       2459.    
  3279 2134-27-11      27    11.00       2465.    
  3280 2134-48-357     48    357.0       2452.    
  3281 2134-55-347     55    347.0       2458.    
  3282 2134-66-45      66    45.00       2458.    
  3283 2134-71-344     71    344.0       2450.    
  3284 2091-61-55      61    55.00       2458.    
  3285 2091-66-26      66    26.00       2475.    
  3286 2091-71-55      71    55.00       2473.    
  3287 2097-48-337     48    337.0       2447.    
  3288 2097-56-23      56    23.00       2454.    
  3289 2097-66-26      66    26.00       2455.    
  3290 2097-71-55      71    55.00       2455.    
  3291 2068-12-281     12    281.0       2453.    
  3292 2070-48-357     48    357.0       2440.    
  3293 2070-55-348     55    348.0       2456.    
  3294 2070-60-348     60    348.0       2441.    
  3295 2070-66-1       66   1.0000       2451.    
  3296 2070-71-365     71    365.0       2433.    
  3297 2027-39-31      39    31.00       2345.    
  3298 2025-66-26      66    26.00       2299.    
  3299 2025-71-55      71    55.00       2304.    
  3300 2010-32-67      32    67.00       2364.    
  3301 1954-32-67      32    67.00       2376.    
  3302 1954-48-355     48    355.0       2305.    
  3303 1954-55-347     55    347.0       2293.    
  3304 1954-66-45      66    45.00       2266.    
  3305 1954-71-344     71    344.0       2283.    
  3306 1963-32-85      32    85.00       2370.    
  3307 1963-42-357     42    357.0       2326.    
  3308 1963-48-355     48    355.0       2304.    
  3309 1963-55-348     55    348.0       2291.    
  3310 1963-61-49      61    49.00       2274.    
  3311 1963-65-356     65    356.0       2263.    
  3312 1963-71-365     71    365.0       2282.    
  3313 2090-27-11      27    11.00       2485.    
  3314 2065-66-45      66    45.00       2433.    
  3315 2065-71-365     71    365.0       2441.    
  3316 2003-71-365     71    365.0       2445.    
  3317 1984-42-355     42    355.0       2470.    
  3318 1984-48-336     48    336.0       2463.    
  3319 2116-65-350     65    350.0       2453.    
  3320 2047-56-19      56    19.00       2480.    
  3321 2047-61-55      61    55.00       2445.    
  3322 2047-66-21      66    21.00       2418.    
  3323 2044-56-19      56    19.00       2475.    
  3324 2044-61-55      61    55.00       2440.    
  3325 2044-66-21      66    21.00       2413.    
  3326 2044-71-41      71    41.00       2429.    
  3327 2018-34-212     34    212.0       2503.    
     MULTIPLE LAYERS AND PROPORTIONS :    1, 0.68       2, 0.32
  3328 2012-1-52        1    52.00       2487.    
 Observation within a steady-state time step has been moved to the end of the time step.
  3329 2012-42-335     42    335.0       2470.    
  3330 2012-48-355     48    355.0       2465.    
  3331 2012-55-348     55    348.0       2470.    
  3332 2012-66-1       66   1.0000       2417.    
  3333 2012-71-365     71    365.0       2440.    
  3334 1979-56-23      56    23.00       2478.    
  3335 1979-61-55      61    55.00       2438.    
  3336 2002-16-361     16    361.0       2488.    
  3337 2002-27-12      27    12.00       2490.    
  3338 1961-56-23      56    23.00       2472.    
  3339 1961-66-26      66    26.00       2406.    
  3340 1961-71-41      71    41.00       2420.    
  3341 2080-42-356     42    356.0       2511.    
  3342 2080-48-350     48    350.0       2506.    
  3343 2080-55-347     55    347.0       2504.    
  3344 2080-66-45      66    45.00       2465.    
  3345 2042-55-347     55    347.0       2498.    
  3346 2042-65-356     65    356.0       2451.    
  3347 2042-71-54      71    54.00       2447.    
  3348 2042-71-365     71    365.0       2454.    
  3349 1964-33-38      33    38.00       2501.    
     MULTIPLE LAYERS AND PROPORTIONS :    1, 0.16       2, 0.84
  3350 1976-42-357     42    357.0       2465.    
  3351 1976-48-355     48    355.0       2503.    
  3352 1976-55-348     55    348.0       2474.    
  3353 1976-60-305     60    305.0       2439.    
  3354 1976-66-1       66   1.0000       2402.    
  3355 1976-71-55      71    55.00       2414.    
  3356 1976-71-365     71    365.0       2424.    
  3357 1970-42-356     42    356.0       2502.    
  3358 1970-48-336     48    336.0       2495.    
  3359 1970-56-19      56    19.00       2505.    
  3360 2051-43-1       43   1.0000       2503.    
  3361 2051-65-356     65    356.0       2450.    
  3362 2051-71-54      71    54.00       2447.    
  3363 2051-71-365     71    365.0       2451.    
  3364 1973-11-214     11    214.0       2529.    
  3365 1969-11-190     11    190.0       2517.    
  3366 1946-66-5       66    5.000       2443.    
  3367 1946-71-22      71    22.00       2447.    
  3368 1946-71-365     71    365.0       2456.    
  3369 1967-27-87      27    87.00       2542.    
     MULTIPLE LAYERS AND PROPORTIONS :    1, 0.12       2, 0.88
  3370 1967-42-356     42    356.0       2502.    
  3371 1967-48-350     48    350.0       2494.    
  3372 1967-55-347     55    347.0       2495.    
  3373 1967-66-5       66    5.000       2444.    
     MULTIPLE LAYERS AND PROPORTIONS :    1, 0.12       2, 0.88
  3374 1967-71-22      71    22.00       2446.    
     MULTIPLE LAYERS AND PROPORTIONS :    1, 0.12       2, 0.88
  3375 1967-71-365     71    365.0       2454.    
     MULTIPLE LAYERS AND PROPORTIONS :    1, 0.12       2, 0.88
  3376 1939-42-356     42    356.0       2504.    
     MULTIPLE LAYERS AND PROPORTIONS :    2, 0.49       3, 0.51
  3377 1939-48-350     48    350.0       2495.    
     MULTIPLE LAYERS AND PROPORTIONS :    2, 0.49       3, 0.51
  3378 1939-55-347     55    347.0       2497.    
     MULTIPLE LAYERS AND PROPORTIONS :    2, 0.49       3, 0.51
  3379 1939-60-356     60    356.0       2480.    
     MULTIPLE LAYERS AND PROPORTIONS :    2, 0.49       3, 0.51
  3380 1939-71-22      71    22.00       2448.    
  3381 1939-71-365     71    365.0       2457.    
  3382 1975-16-361     16    361.0       2581.    
  3383 1975-27-12      27    12.00       2580.    
  3384 1945-56-25      56    25.00       2584.    
  3385 1945-61-54      61    54.00       2569.    
  3386 1945-66-27      66    27.00       2577.    
  3387 1945-71-41      71    41.00       2576.    
  3388 1711-42-352     42    352.0       1846.    
  3389 1711-48-350     48    350.0       1844.    
  3390 1711-55-354     55    354.0       1846.    
  3391 1711-61-21      61    21.00       1848.    
  3392 1711-66-39      66    39.00       1836.    
  3393 1711-71-7       71    7.000       1842.    
  3394 1711-71-365     71    365.0       1843.    
  3395 1555-27-24      27    24.00       1867.    
     MULTIPLE LAYERS AND PROPORTIONS :    2, 0.23       3, 0.77
  3396 1555-31-348     31    348.0       1851.    
     MULTIPLE LAYERS AND PROPORTIONS :    2, 0.23       3, 0.77
  3397 1555-37-341     37    341.0       1811.    
     MULTIPLE LAYERS AND PROPORTIONS :    2, 0.23       3, 0.77
  3398 1555-48-348     48    348.0       1846.    
     MULTIPLE LAYERS AND PROPORTIONS :    2, 0.23       3, 0.77
  3399 1555-56-27      56    27.00       1843.    
     MULTIPLE LAYERS AND PROPORTIONS :    2, 0.23       3, 0.77
  3400 1555-60-319     60    319.0       1847.    
     MULTIPLE LAYERS AND PROPORTIONS :    2, 0.23       3, 0.77
  3401 1555-65-301     65    301.0       1827.    
     MULTIPLE LAYERS AND PROPORTIONS :    2, 0.23       3, 0.77
  3402 1555-71-11      71    11.00       1841.    
     MULTIPLE LAYERS AND PROPORTIONS :    2, 0.23       3, 0.77
  3403 1555-71-365     71    365.0       1845.    
     MULTIPLE LAYERS AND PROPORTIONS :    2, 0.23       3, 0.77
  3404 1428-11-1       11   1.0000       1997.    
  3405 1428-17-11      17    11.00       1983.    
  3406 1428-22-12      22    12.00       1969.    
  3407 1428-32-85      32    85.00       1946.    
  3408 1383-1-106       1    106.0       2023.    
 Observation within a steady-state time step has been moved to the end of the time step.
  3409 1383-7-337       7    337.0       2024.    
  3410 1383-12-361     12    361.0       2025.    
  3411 1819-38-13      38    13.00       1884.    
     MULTIPLE LAYERS AND PROPORTIONS :    2, 0.69       3, 0.31
  3412 1819-42-352     42    352.0       1885.    
     MULTIPLE LAYERS AND PROPORTIONS :    2, 0.69       3, 0.31
  3413 1819-55-354     55    354.0       1873.    
     MULTIPLE LAYERS AND PROPORTIONS :    2, 0.69       3, 0.31
  3414 1820-71-12      71    12.00       1977.    
  3415 1820-71-365     71    365.0       1948.    
  3416 1748-17-6       17    6.000       1946.    
     MULTIPLE LAYERS AND PROPORTIONS :    2, 0.51       3, 0.49
  3417 1748-21-335     21    335.0       1923.    
     MULTIPLE LAYERS AND PROPORTIONS :    2, 0.51       3, 0.49
  3418 1748-48-348     48    348.0       1881.    
     MULTIPLE LAYERS AND PROPORTIONS :    2, 0.51       3, 0.49
  3419 1748-60-305     60    305.0       1887.    
     MULTIPLE LAYERS AND PROPORTIONS :    2, 0.51       3, 0.49
  3420 1748-66-1       66   1.0000       1901.    
     MULTIPLE LAYERS AND PROPORTIONS :    2, 0.51       3, 0.49
  3421 1748-71-8       71    8.000       1952.    
     MULTIPLE LAYERS AND PROPORTIONS :    2, 0.51       3, 0.49
  3422 1748-71-365     71    365.0       1953.    
     MULTIPLE LAYERS AND PROPORTIONS :    2, 0.51       3, 0.49
  3423 1903-71-365     71    365.0       1926.    
  3424 1862-71-365     71    365.0       1905.    
  3425 1861-65-364     65    364.0       1916.    
  3426 1861-71-365     71    365.0       1952.    
  3427 1833-71-365     71    365.0       1934.    
  3428 1770-71-365     71    365.0       1954.    
  3429 1758-71-365     71    365.0       1924.    
  3430 1709-22-38      22    38.00       1907.    
     MULTIPLE LAYERS AND PROPORTIONS :    2, 0.33       3, 0.67
  3431 1709-42-352     42    352.0       1881.    
     MULTIPLE LAYERS AND PROPORTIONS :    2, 0.33       3, 0.67
  3432 1709-55-354     55    354.0       1871.    
     MULTIPLE LAYERS AND PROPORTIONS :    2, 0.33       3, 0.67
  3433 1709-65-344     65    344.0       1908.    
     MULTIPLE LAYERS AND PROPORTIONS :    2, 0.33       3, 0.67
  3434 1709-71-365     71    365.0       1954.    
     MULTIPLE LAYERS AND PROPORTIONS :    2, 0.33       3, 0.67
  3435 1700-71-365     71    365.0       1954.    
  3436 1828-71-365     71    365.0       1954.    
  3437 1698-71-365     71    365.0       1984.    
  3438 1883-65-336     65    336.0       1858.    
  3439 1883-71-365     71    365.0       1882.    
  3440 1838-71-365     71    365.0       1856.    
  3441 1805-71-365     71    365.0       1842.    
  3442 1702-16-354     16    354.0       1930.    
     MULTIPLE LAYERS AND PROPORTIONS :    2, 0.37       3, 0.63
  3443 1702-42-352     42    352.0       1867.    
     MULTIPLE LAYERS AND PROPORTIONS :    2, 0.37       3, 0.63
  3444 1702-48-349     48    349.0       1865.    
     MULTIPLE LAYERS AND PROPORTIONS :    2, 0.37       3, 0.63
  3445 1702-55-354     55    354.0       1861.    
     MULTIPLE LAYERS AND PROPORTIONS :    2, 0.37       3, 0.63
  3446 1702-61-31      61    31.00       1873.    
     MULTIPLE LAYERS AND PROPORTIONS :    2, 0.37       3, 0.63
  3447 1702-65-344     65    344.0       1835.    
     MULTIPLE LAYERS AND PROPORTIONS :    2, 0.37       3, 0.63
  3448 1702-71-365     71    365.0       1869.    
  3449 1704-71-365     71    365.0       1865.    
  3450 1829-71-365     71    365.0       1888.    
  3451 1710-17-6       17    6.000       1935.    
     MULTIPLE LAYERS AND PROPORTIONS :    2, 0.18       3, 0.82
  3452 1710-42-352     42    352.0       1874.    
     MULTIPLE LAYERS AND PROPORTIONS :    2, 0.18       3, 0.82
  3453 1710-48-349     48    349.0       1871.    
     MULTIPLE LAYERS AND PROPORTIONS :    2, 0.18       3, 0.82
  3454 1710-55-354     55    354.0       1867.    
     MULTIPLE LAYERS AND PROPORTIONS :    2, 0.18       3, 0.82
  3455 1710-61-31      61    31.00       1882.    
     MULTIPLE LAYERS AND PROPORTIONS :    2, 0.18       3, 0.82
  3456 1710-65-344     65    344.0       1849.    
     MULTIPLE LAYERS AND PROPORTIONS :    2, 0.18       3, 0.82
  3457 1710-71-365     71    365.0       1891.    
  3458 1703-71-365     71    365.0       1899.    
  3459 1663-12-305     12    305.0       1964.    
     MULTIPLE LAYERS AND PROPORTIONS :    2, 0.25       3, 0.75
  3460 1663-42-352     42    352.0       1877.    
     MULTIPLE LAYERS AND PROPORTIONS :    2, 0.25       3, 0.75
  3461 1663-48-349     48    349.0       1873.    
     MULTIPLE LAYERS AND PROPORTIONS :    2, 0.25       3, 0.75
  3462 1663-55-354     55    354.0       1869.    
     MULTIPLE LAYERS AND PROPORTIONS :    2, 0.25       3, 0.75
  3463 1663-61-31      61    31.00       1880.    
     MULTIPLE LAYERS AND PROPORTIONS :    2, 0.25       3, 0.75
  3464 1663-65-338     65    338.0       1844.    
     MULTIPLE LAYERS AND PROPORTIONS :    2, 0.25       3, 0.75
  3465 1663-71-365     71    365.0       1891.    
  3466 1667-71-365     71    365.0       1888.    
  3467 1686-71-365     71    365.0       1980.    
  3468 1653-71-365     71    365.0       2007.    
  3469 1634-71-365     71    365.0       1985.    
  3470 1637-71-365     71    365.0       1997.    
  3471 1635-71-365     71    365.0       1936.    
  3472 1584-17-6       17    6.000       1957.    
     MULTIPLE LAYERS AND PROPORTIONS :    2, 0.41       3, 0.59
  3473 1584-22-38      22    38.00       1934.    
     MULTIPLE LAYERS AND PROPORTIONS :    2, 0.41       3, 0.59
  3474 1584-27-27      27    27.00       1919.    
     MULTIPLE LAYERS AND PROPORTIONS :    2, 0.41       3, 0.59
  3475 1584-32-85      32    85.00       1896.    
     MULTIPLE LAYERS AND PROPORTIONS :    2, 0.41       3, 0.59
  3476 1584-37-34      37    34.00       1893.    
     MULTIPLE LAYERS AND PROPORTIONS :    2, 0.41       3, 0.59
  3477 1584-42-352     42    352.0       1904.    
     MULTIPLE LAYERS AND PROPORTIONS :    2, 0.41       3, 0.59
  3478 1584-48-348     48    348.0       1898.    
     MULTIPLE LAYERS AND PROPORTIONS :    2, 0.41       3, 0.59
  3479 1584-55-354     55    354.0       1891.    
     MULTIPLE LAYERS AND PROPORTIONS :    2, 0.41       3, 0.59
  3480 1584-60-323     60    323.0       1899.    
     MULTIPLE LAYERS AND PROPORTIONS :    2, 0.41       3, 0.59
  3481 1584-65-344     65    344.0       1892.    
     MULTIPLE LAYERS AND PROPORTIONS :    2, 0.41       3, 0.59
  3482 1584-71-365     71    365.0       1958.    
     MULTIPLE LAYERS AND PROPORTIONS :    2, 0.41       3, 0.59
  3483 1585-71-365     71    365.0       1953.    
  3484 1592-71-365     71    365.0       1979.    
  3485 1591-71-365     71    365.0       1992.    
  3486 1590-71-365     71    365.0       1994.    
  3487 1650-71-365     71    365.0       1967.    
  3488 1684-48-275     48    275.0       1902.    
  3489 1684-66-20      66    20.00       1899.    
  3490 1685-48-275     48    275.0       1902.    
  3491 1685-66-20      66    20.00       1896.    
  3492 1496-21-355     21    355.0       1982.    
  3493 1496-27-27      27    27.00       1971.    
  3494 1496-32-85      32    85.00       1959.    
  3495 1496-36-91      36    91.00       1953.    
  3496 1496-56-19      56    19.00       1930.    
  3497 1491-56-19      56    19.00       1932.    
  3498 1501-16-309     16    309.0       2004.    
  3499 1497-48-300     48    300.0       1940.    
  3500 1497-55-318     55    318.0       1931.    
  3501 1497-60-313     60    313.0       1916.    
  3502 1497-65-364     65    364.0       1898.    
  3503 1497-71-350     71    350.0       1941.    
  3504 1498-48-300     48    300.0       1941.    
  3505 1498-55-318     55    318.0       1930.    
  3506 1498-60-313     60    313.0       1917.    
  3507 1498-65-364     65    364.0       1898.    
  3508 1498-71-350     71    350.0       1942.    
  3509 1442-36-1       36   1.0000       1957.    
     MULTIPLE LAYERS AND PROPORTIONS :    2, 0.09       3, 0.91
  3510 1442-42-349     42    349.0       1941.    
     MULTIPLE LAYERS AND PROPORTIONS :    2, 0.09       3, 0.91
  3511 1442-48-349     48    349.0       1933.    
     MULTIPLE LAYERS AND PROPORTIONS :    2, 0.09       3, 0.91
  3512 1442-55-353     55    353.0       1923.    
     MULTIPLE LAYERS AND PROPORTIONS :    2, 0.09       3, 0.91
  3513 1442-61-21      61    21.00       1907.    
     MULTIPLE LAYERS AND PROPORTIONS :    2, 0.09       3, 0.91
  3514 1473-10-213     10    213.0       2021.    
  3515 1407-22-38      22    38.00       1991.    
     MULTIPLE LAYERS AND PROPORTIONS :    2, 0.83       3, 0.17
  3516 1407-42-349     42    349.0       1957.    
     MULTIPLE LAYERS AND PROPORTIONS :    2, 0.83       3, 0.17
  3517 1407-48-349     48    349.0       1949.    
     MULTIPLE LAYERS AND PROPORTIONS :    2, 0.83       3, 0.17
  3518 1407-55-353     55    353.0       1937.    
     MULTIPLE LAYERS AND PROPORTIONS :    2, 0.83       3, 0.17
  3519 1407-61-21      61    21.00       1916.    
     MULTIPLE LAYERS AND PROPORTIONS :    2, 0.83       3, 0.17
  3520 1407-66-34      66    34.00       1900.    
     MULTIPLE LAYERS AND PROPORTIONS :    2, 0.83       3, 0.17
  3521 1407-71-365     71    365.0       1990.    
     MULTIPLE LAYERS AND PROPORTIONS :    2, 0.83       3, 0.17
  3522 1412-71-365     71    365.0       1993.    
  3523 1393-38-335     38    335.0       1974.    
  3524 1393-42-349     42    349.0       1957.    
  3525 1393-48-349     48    349.0       1950.    
  3526 1393-55-353     55    353.0       1938.    
  3527 1393-71-365     71    365.0       2034.    
  3528 1376-36-78      36    78.00       1988.    
     MULTIPLE LAYERS AND PROPORTIONS :    2, 0.11       3, 0.89
  3529 1376-48-349     48    349.0       1957.    
     MULTIPLE LAYERS AND PROPORTIONS :    2, 0.11       3, 0.89
  3530 1376-61-21      61    21.00       1921.    
     MULTIPLE LAYERS AND PROPORTIONS :    2, 0.11       3, 0.89
  3531 1376-66-34      66    34.00       1905.    
     MULTIPLE LAYERS AND PROPORTIONS :    2, 0.11       3, 0.89
  3532 1376-71-56      71    56.00       1990.    
     MULTIPLE LAYERS AND PROPORTIONS :    2, 0.11       3, 0.89
  3533 1376-71-365     71    365.0       2019.    
  3534 1361-71-362     71    362.0       1995.    
  3535 1362-71-362     71    362.0       1995.    
  3536 1421-71-362     71    362.0       2025.    
  3537 1403-66-34      66    34.00       1900.    
  3538 1403-71-56      71    56.00       1997.    
  3539 1403-71-365     71    365.0       2031.    
  3540 1388-71-362     71    362.0       2044.    
  3541 1364-17-12      17    12.00       2001.    
  3542 1364-38-335     38    335.0       1980.    
  3543 1364-42-349     42    349.0       1961.    
  3544 1364-55-353     55    353.0       1942.    
  3545 1364-66-34      66    34.00       1904.    
  3546 1364-71-365     71    365.0       2054.    
  3547 1365-17-12      17    12.00       2006.    
     MULTIPLE LAYERS AND PROPORTIONS :    2, 0.72       3, 0.28
  3548 1365-22-6       22    6.000       1999.    
     MULTIPLE LAYERS AND PROPORTIONS :    2, 0.72       3, 0.28
  3549 1365-27-27      27    27.00       1992.    
     MULTIPLE LAYERS AND PROPORTIONS :    2, 0.72       3, 0.28
  3550 1365-32-85      32    85.00       1986.    
     MULTIPLE LAYERS AND PROPORTIONS :    2, 0.72       3, 0.28
  3551 1365-37-17      37    17.00       1983.    
     MULTIPLE LAYERS AND PROPORTIONS :    2, 0.72       3, 0.28
  3552 1365-42-349     42    349.0       1965.    
     MULTIPLE LAYERS AND PROPORTIONS :    2, 0.72       3, 0.28
  3553 1365-48-349     48    349.0       1959.    
     MULTIPLE LAYERS AND PROPORTIONS :    2, 0.72       3, 0.28
  3554 1365-55-353     55    353.0       1948.    
     MULTIPLE LAYERS AND PROPORTIONS :    2, 0.72       3, 0.28
  3555 1365-60-364     60    364.0       1925.    
     MULTIPLE LAYERS AND PROPORTIONS :    2, 0.72       3, 0.28
  3556 1365-66-1       66   1.0000       1907.    
     MULTIPLE LAYERS AND PROPORTIONS :    2, 0.72       3, 0.28
  3557 1365-71-365     71    365.0       2045.    
     MULTIPLE LAYERS AND PROPORTIONS :    2, 0.72       3, 0.28
  3558 1335-71-362     71    362.0       2054.    
  3559 1313-36-114     36    114.0       1987.    
     MULTIPLE LAYERS AND PROPORTIONS :    2, 0.08       3, 0.92
  3560 1313-42-349     42    349.0       1974.    
     MULTIPLE LAYERS AND PROPORTIONS :    2, 0.08       3, 0.92
  3561 1313-48-349     48    349.0       1966.    
     MULTIPLE LAYERS AND PROPORTIONS :    2, 0.08       3, 0.92
  3562 1313-55-353     55    353.0       1953.    
     MULTIPLE LAYERS AND PROPORTIONS :    2, 0.08       3, 0.92
  3563 1313-61-21      61    21.00       1922.    
     MULTIPLE LAYERS AND PROPORTIONS :    2, 0.08       3, 0.92
  3564 1313-66-13      66    13.00       1906.    
     MULTIPLE LAYERS AND PROPORTIONS :    2, 0.08       3, 0.92
  3565 1266-17-12      17    12.00       2022.    
     MULTIPLE LAYERS AND PROPORTIONS :    2, 0.57       3, 0.43
  3566 1266-38-335     38    335.0       2003.    
     MULTIPLE LAYERS AND PROPORTIONS :    2, 0.57       3, 0.43
  3567 1266-42-349     42    349.0       1987.    
     MULTIPLE LAYERS AND PROPORTIONS :    2, 0.57       3, 0.43
  3568 1266-48-349     48    349.0       1980.    
     MULTIPLE LAYERS AND PROPORTIONS :    2, 0.57       3, 0.43
  3569 1266-56-3       56    3.000       1967.    
     MULTIPLE LAYERS AND PROPORTIONS :    2, 0.57       3, 0.43
  3570 1266-61-21      61    21.00       1938.    
     MULTIPLE LAYERS AND PROPORTIONS :    2, 0.57       3, 0.43
  3571 1266-66-12      66    12.00       1922.    
     MULTIPLE LAYERS AND PROPORTIONS :    2, 0.57       3, 0.43
  3572 1266-71-56      71    56.00       2000.    
     MULTIPLE LAYERS AND PROPORTIONS :    2, 0.57       3, 0.43
  3573 1266-71-365     71    365.0       2050.    
  3574 1258-71-362     71    362.0       2050.    
  3575 1265-17-12      17    12.00       2015.    
     MULTIPLE LAYERS AND PROPORTIONS :    2, 0.42       3, 0.58
  3576 1265-38-335     38    335.0       2003.    
     MULTIPLE LAYERS AND PROPORTIONS :    2, 0.42       3, 0.58
  3577 1265-42-349     42    349.0       1982.    
     MULTIPLE LAYERS AND PROPORTIONS :    2, 0.42       3, 0.58
  3578 1265-48-349     48    349.0       1975.    
     MULTIPLE LAYERS AND PROPORTIONS :    2, 0.42       3, 0.58
  3579 1265-55-353     55    353.0       1961.    
     MULTIPLE LAYERS AND PROPORTIONS :    2, 0.42       3, 0.58
  3580 1265-66-34      66    34.00       1917.    
     MULTIPLE LAYERS AND PROPORTIONS :    2, 0.42       3, 0.58
  3581 1265-71-56      71    56.00       1998.    
     MULTIPLE LAYERS AND PROPORTIONS :    2, 0.42       3, 0.58
  3582 1265-71-365     71    365.0       2040.    
     MULTIPLE LAYERS AND PROPORTIONS :    2, 0.42       3, 0.58
  3583 1336-17-12      17    12.00       2021.    
     MULTIPLE LAYERS AND PROPORTIONS :    2, 0.82       3, 0.18
  3584 1336-38-335     38    335.0       1988.    
     MULTIPLE LAYERS AND PROPORTIONS :    2, 0.82       3, 0.18
  3585 1336-42-349     42    349.0       1974.    
     MULTIPLE LAYERS AND PROPORTIONS :    2, 0.82       3, 0.18
  3586 1336-48-349     48    349.0       1965.    
     MULTIPLE LAYERS AND PROPORTIONS :    2, 0.82       3, 0.18
  3587 1336-55-353     55    353.0       1959.    
     MULTIPLE LAYERS AND PROPORTIONS :    2, 0.82       3, 0.18
  3588 1336-71-40      71    40.00       1955.    
     MULTIPLE LAYERS AND PROPORTIONS :    2, 0.82       3, 0.18
  3589 1336-71-365     71    365.0       1999.    
     MULTIPLE LAYERS AND PROPORTIONS :    2, 0.82       3, 0.18
  3590 1337-42-349     42    349.0       1965.    
     MULTIPLE LAYERS AND PROPORTIONS :    2, 0.78       3, 0.22
  3591 1337-55-353     55    353.0       1947.    
     MULTIPLE LAYERS AND PROPORTIONS :    2, 0.78       3, 0.22
  3592 1337-66-27      66    27.00       1901.    
     MULTIPLE LAYERS AND PROPORTIONS :    2, 0.78       3, 0.22
  3593 1337-71-365     71    365.0       2033.    
     MULTIPLE LAYERS AND PROPORTIONS :    2, 0.78       3, 0.22
  3594 1340-36-38      36    38.00       1989.    
     MULTIPLE LAYERS AND PROPORTIONS :    2, 0.09       3, 0.91
  3595 1340-42-349     42    349.0       1969.    
     MULTIPLE LAYERS AND PROPORTIONS :    2, 0.09       3, 0.91
  3596 1340-48-349     48    349.0       1961.    
     MULTIPLE LAYERS AND PROPORTIONS :    2, 0.09       3, 0.91
  3597 1340-55-353     55    353.0       1948.    
     MULTIPLE LAYERS AND PROPORTIONS :    2, 0.09       3, 0.91
  3598 1340-66-10      66   10.000       1902.    
     MULTIPLE LAYERS AND PROPORTIONS :    2, 0.09       3, 0.91
  3599 1340-71-56      71    56.00       2011.    
     MULTIPLE LAYERS AND PROPORTIONS :    2, 0.09       3, 0.91
  3600 1340-71-365     71    365.0       2033.    
     MULTIPLE LAYERS AND PROPORTIONS :    2, 0.09       3, 0.91
  3601 1264-38-335     38    335.0       2000.    
     MULTIPLE LAYERS AND PROPORTIONS :    2, 0.41       3, 0.59
  3602 1264-42-349     42    349.0       1981.    
     MULTIPLE LAYERS AND PROPORTIONS :    2, 0.41       3, 0.59
  3603 1264-71-70      71    70.00       1982.    
     MULTIPLE LAYERS AND PROPORTIONS :    2, 0.41       3, 0.59
  3604 1264-71-365     71    365.0       2018.    
     MULTIPLE LAYERS AND PROPORTIONS :    2, 0.41       3, 0.59
  3605 1257-66-33      66    33.00       1916.    
  3606 1257-71-56      71    56.00       1959.    
  3607 1257-71-365     71    365.0       1994.    
  3608 1371-56-31      56    31.00       1966.    
  3609 1371-66-56      66    56.00       1937.    
  3610 1371-71-50      71    50.00       1934.    
  3611 1371-71-365     71    365.0       1940.    
  3612 1370-34-198     34    198.0       2015.    
  3613 1370-56-31      56    31.00       1974.    
  3614 1370-66-56      66    56.00       1951.    
  3615 1370-71-50      71    50.00       1943.    
  3616 1370-71-365     71    365.0       1945.    
  3617 1849-12-32      12    32.00       2295.    
     MULTIPLE LAYERS AND PROPORTIONS :    1, 0.73       2, 0.27
  3618 1849-17-34      17    34.00       2282.    
     MULTIPLE LAYERS AND PROPORTIONS :    1, 0.73       2, 0.27
  3619 1849-22-1       22   1.0000       2276.    
     MULTIPLE LAYERS AND PROPORTIONS :    1, 0.73       2, 0.27
  3620 1847-48-362     48    362.0       2218.    
  3621 1847-56-34      56    34.00       2197.    
  3622 1847-61-3       61    3.000       2185.    
  3623 1847-66-1       66   1.0000       2178.    
  3624 1847-71-56      71    56.00       2177.    
  3625 1847-71-365     71    365.0       2179.    
  3626 1742-1-365       1    365.0       2295.    
 Observation within a steady-state time step has been moved to the end of the time step.
  3627 1741-1-365       1    365.0       2294.    
 Observation within a steady-state time step has been moved to the end of the time step.
  3628 1766-1-365       1    365.0       2333.    
 Observation within a steady-state time step has been moved to the end of the time step.
  3629 1848-56-34      56    34.00       2194.    
  3630 1848-65-336     65    336.0       2176.    
  3631 1848-71-365     71    365.0       2172.    
  3632 1901-2-36        2    36.00       2292.    
  3633 1912-1-365       1    365.0       2284.    
 Observation within a steady-state time step has been moved to the end of the time step.
  3634 1929-1-365       1    365.0       2283.    
 Observation within a steady-state time step has been moved to the end of the time step.
  3635 1902-1-365       1    365.0       2282.    
 Observation within a steady-state time step has been moved to the end of the time step.
  3636 1872-71-68      71    68.00       2168.    
  3637 1872-71-365     71    365.0       2169.    
  3638 1871-56-34      56    34.00       2185.    
  3639 1832-17-37      17    37.00       2250.    
  3640 1832-22-1       22   1.0000       2238.    
  3641 1832-32-49      32    49.00       2224.    
  3642 1832-42-362     42    362.0       2198.    
  3643 1832-48-362     48    362.0       2207.    
  3644 1832-56-34      56    34.00       2189.    
  3645 1832-61-3       61    3.000       2179.    
  3646 1832-71-21      71    21.00       2168.    
  3647 1832-71-365     71    365.0       2168.    
  3648 1767-27-40      27    40.00       2263.    
     MULTIPLE LAYERS AND PROPORTIONS :    2, 0.62       3, 0.38
  3649 1767-42-363     42    363.0       2207.    
     MULTIPLE LAYERS AND PROPORTIONS :    2, 0.62       3, 0.38
  3650 1767-56-34      56    34.00       2199.    
     MULTIPLE LAYERS AND PROPORTIONS :    2, 0.62       3, 0.38
  3651 1818-65-336     65    336.0       2171.    
  3652 1804-71-76      71    76.00       2169.    
  3653 1804-71-365     71    365.0       2168.    
  3654 1793-42-362     42    362.0       2203.    
     MULTIPLE LAYERS AND PROPORTIONS :    1, 0.16       2, 0.84
  3655 1793-48-334     48    334.0       2211.    
     MULTIPLE LAYERS AND PROPORTIONS :    1, 0.16       2, 0.84
  3656 1793-56-34      56    34.00       2196.    
     MULTIPLE LAYERS AND PROPORTIONS :    1, 0.16       2, 0.84
  3657 1793-65-336     65    336.0       2179.    
     MULTIPLE LAYERS AND PROPORTIONS :    1, 0.16       2, 0.84
  3658 1793-71-21      71    21.00       2174.    
     MULTIPLE LAYERS AND PROPORTIONS :    1, 0.16       2, 0.84
  3659 1793-71-365     71    365.0       2173.    
     MULTIPLE LAYERS AND PROPORTIONS :    1, 0.16       2, 0.84
  3660 1891-1-365       1    365.0       2278.    
 Observation within a steady-state time step has been moved to the end of the time step.
  3661 1891-11-38      11    38.00       2260.    
  3662 1891-17-37      17    37.00       2237.    
  3663 1690-32-32      32    32.00       2242.    
  3664 1690-34-32      34    32.00       2237.    
  3665 1690-42-362     42    362.0       2216.    
  3666 1690-48-362     48    362.0       2222.    
  3667 1690-56-34      56    34.00       2207.    
  3668 1690-61-3       61    3.000       2187.    
  3669 1690-71-21      71    21.00       2185.    
  3670 1690-71-365     71    365.0       2186.    
  3671 1697-56-34      56    34.00       2201.    
  3672 1697-65-336     65    336.0       2184.    
  3673 1697-71-21      71    21.00       2181.    
  3674 1697-71-365     71    365.0       2181.    
  3675 1638-22-30      22    30.00       2262.    
  3676 1638-27-48      27    48.00       2252.    
  3677 1638-32-49      32    49.00       2248.    
  3678 1638-37-49      37    49.00       2231.    
  3679 1638-42-363     42    363.0       2220.    
  3680 1642-1-365       1    365.0       2316.    
 Observation within a steady-state time step has been moved to the end of the time step.
  3681 1642-8-48        8    48.00       2310.    
  3682 1626-1-365       1    365.0       2317.    
 Observation within a steady-state time step has been moved to the end of the time step.
  3683 1625-26-349     26    349.0       2281.    
     MULTIPLE LAYERS AND PROPORTIONS :    1, 0.28       2, 0.72
  3684 1625-32-49      32    49.00       2274.    
     MULTIPLE LAYERS AND PROPORTIONS :    1, 0.28       2, 0.72
  3685 1625-42-362     42    362.0       2244.    
     MULTIPLE LAYERS AND PROPORTIONS :    1, 0.28       2, 0.72
  3686 1625-48-362     48    362.0       2241.    
     MULTIPLE LAYERS AND PROPORTIONS :    1, 0.28       2, 0.72
  3687 1625-56-34      56    34.00       2226.    
     MULTIPLE LAYERS AND PROPORTIONS :    1, 0.28       2, 0.72
  3688 1625-61-3       61    3.000       2218.    
     MULTIPLE LAYERS AND PROPORTIONS :    1, 0.28       2, 0.72
  3689 1508-12-54      12    54.00       2335.    
     MULTIPLE LAYERS AND PROPORTIONS :    1, 0.89       2, 0.11
  3690 1508-17-33      17    33.00       2334.    
     MULTIPLE LAYERS AND PROPORTIONS :    1, 0.89       2, 0.11
  3691 1508-22-26      22    26.00       2330.    
     MULTIPLE LAYERS AND PROPORTIONS :    1, 0.89       2, 0.11
  3692 1508-27-15      27    15.00       2332.    
     MULTIPLE LAYERS AND PROPORTIONS :    1, 0.89       2, 0.11
  3693 1508-32-49      32    49.00       2321.    
     MULTIPLE LAYERS AND PROPORTIONS :    1, 0.89       2, 0.11
  3694 1508-43-5       43    5.000       2280.    
     MULTIPLE LAYERS AND PROPORTIONS :    1, 0.89       2, 0.11
  3695 1508-48-364     48    364.0       2290.    
     MULTIPLE LAYERS AND PROPORTIONS :    1, 0.89       2, 0.11
  3696 1508-56-34      56    34.00       2275.    
     MULTIPLE LAYERS AND PROPORTIONS :    1, 0.89       2, 0.11
  3697 1508-61-3       61    3.000       2245.    
     MULTIPLE LAYERS AND PROPORTIONS :    1, 0.89       2, 0.11
  3698 1508-71-49      71    49.00       2245.    
     MULTIPLE LAYERS AND PROPORTIONS :    1, 0.89       2, 0.11
  3699 1508-71-365     71    365.0       2249.    
     MULTIPLE LAYERS AND PROPORTIONS :    1, 0.89       2, 0.11
  3700 1479-43-5       43    5.000       2283.    
     MULTIPLE LAYERS AND PROPORTIONS :    1, 0.65       2, 0.35
  3701 1479-48-364     48    364.0       2295.    
     MULTIPLE LAYERS AND PROPORTIONS :    1, 0.65       2, 0.35
  3702 1479-56-34      56    34.00       2280.    
     MULTIPLE LAYERS AND PROPORTIONS :    1, 0.65       2, 0.35
  3703 1479-60-363     60    363.0       2247.    
     MULTIPLE LAYERS AND PROPORTIONS :    1, 0.65       2, 0.35
  3704 1479-71-70      71    70.00       2249.    
     MULTIPLE LAYERS AND PROPORTIONS :    1, 0.65       2, 0.35
  3705 1479-71-365     71    365.0       2251.    
     MULTIPLE LAYERS AND PROPORTIONS :    1, 0.65       2, 0.35
  3706 1462-42-364     42    364.0       2289.    
  3707 1462-48-334     48    334.0       2293.    
  3708 1462-56-16      56    16.00       2279.    
  3709 1468-1-365       1    365.0       2357.    
 Observation within a steady-state time step has been moved to the end of the time step.
  3710 1471-11-278     11    278.0       2346.    
     MULTIPLE LAYERS AND PROPORTIONS :    1, 0.57       2, 0.43
  3711 1471-17-33      17    33.00       2344.    
     MULTIPLE LAYERS AND PROPORTIONS :    1, 0.57       2, 0.43
  3712 1471-22-26      22    26.00       2339.    
     MULTIPLE LAYERS AND PROPORTIONS :    1, 0.57       2, 0.43
  3713 1471-26-349     26    349.0       2333.    
     MULTIPLE LAYERS AND PROPORTIONS :    1, 0.57       2, 0.43
  3714 1471-43-5       43    5.000       2284.    
     MULTIPLE LAYERS AND PROPORTIONS :    1, 0.57       2, 0.43
  3715 1471-48-364     48    364.0       2296.    
  3716 1471-65-336     65    336.0       2241.    
     MULTIPLE LAYERS AND PROPORTIONS :    1, 0.57       2, 0.43
  3717 1471-71-70      71    70.00       2248.    
     MULTIPLE LAYERS AND PROPORTIONS :    1, 0.57       2, 0.43
  3718 1471-71-365     71    365.0       2250.    
     MULTIPLE LAYERS AND PROPORTIONS :    1, 0.57       2, 0.43
  3719 1461-12-54      12    54.00       2348.    
     MULTIPLE LAYERS AND PROPORTIONS :    2, 0.50       3, 0.50
  3720 1461-17-44      17    44.00       2340.    
     MULTIPLE LAYERS AND PROPORTIONS :    2, 0.50       3, 0.50
  3721 1461-22-30      22    30.00       2330.    
     MULTIPLE LAYERS AND PROPORTIONS :    2, 0.50       3, 0.50
  3722 1461-27-59      27    59.00       2319.    
     MULTIPLE LAYERS AND PROPORTIONS :    2, 0.50       3, 0.50
  3723 1461-42-363     42    363.0       2295.    
     MULTIPLE LAYERS AND PROPORTIONS :    2, 0.50       3, 0.50
  3724 1461-48-336     48    336.0       2311.    
     MULTIPLE LAYERS AND PROPORTIONS :    2, 0.50       3, 0.50
  3725 1461-56-34      56    34.00       2299.    
     MULTIPLE LAYERS AND PROPORTIONS :    2, 0.50       3, 0.50
  3726 1461-60-363     60    363.0       2271.    
     MULTIPLE LAYERS AND PROPORTIONS :    2, 0.50       3, 0.50
  3727 1461-66-59      66    59.00       2274.    
     MULTIPLE LAYERS AND PROPORTIONS :    2, 0.50       3, 0.50
  3728 1461-71-70      71    70.00       2283.    
     MULTIPLE LAYERS AND PROPORTIONS :    2, 0.50       3, 0.50
  3729 1461-71-365     71    365.0       2287.    
     MULTIPLE LAYERS AND PROPORTIONS :    2, 0.50       3, 0.50
  3730 1387-42-362     42    362.0       2292.    
     MULTIPLE LAYERS AND PROPORTIONS :    2, 0.46       3, 0.54
  3731 1387-49-2       49    2.000       2310.    
     MULTIPLE LAYERS AND PROPORTIONS :    2, 0.46       3, 0.54
  3732 1387-56-33      56    33.00       2280.    
     MULTIPLE LAYERS AND PROPORTIONS :    2, 0.46       3, 0.54
  3733 1387-60-363     60    363.0       2244.    
     MULTIPLE LAYERS AND PROPORTIONS :    2, 0.46       3, 0.54
  3734 1387-66-59      66    59.00       2240.    
     MULTIPLE LAYERS AND PROPORTIONS :    2, 0.46       3, 0.54
  3735 1387-71-70      71    70.00       2252.    
     MULTIPLE LAYERS AND PROPORTIONS :    2, 0.46       3, 0.54
  3736 1387-71-365     71    365.0       2256.    
     MULTIPLE LAYERS AND PROPORTIONS :    2, 0.46       3, 0.54
  3737 1391-17-41      17    41.00       2368.    
     MULTIPLE LAYERS AND PROPORTIONS :    1, 0.42       2, 0.45       3, 0.13
  3738 1391-22-31      22    31.00       2358.    
     MULTIPLE LAYERS AND PROPORTIONS :    1, 0.42       2, 0.45       3, 0.13
  3739 1391-42-362     42    362.0       2310.    
     MULTIPLE LAYERS AND PROPORTIONS :    2, 0.87       3, 0.13
  3740 1391-48-338     48    338.0       2314.    
     MULTIPLE LAYERS AND PROPORTIONS :    2, 0.87       3, 0.13
  3741 1391-56-16      56    16.00       2281.    
     MULTIPLE LAYERS AND PROPORTIONS :    2, 0.87       3, 0.13
  3742 1391-61-59      61    59.00       2260.    
     MULTIPLE LAYERS AND PROPORTIONS :    2, 0.87       3, 0.13
  3743 1391-66-27      66    27.00       2277.    
     MULTIPLE LAYERS AND PROPORTIONS :    2, 0.87       3, 0.13
  3744 1391-71-56      71    56.00       2263.    
     MULTIPLE LAYERS AND PROPORTIONS :    2, 0.87       3, 0.13
  3745 1386-17-41      17    41.00       2369.    
     MULTIPLE LAYERS AND PROPORTIONS :    1, 0.37       2, 0.49       3, 0.14
  3746 1386-22-31      22    31.00       2358.    
     MULTIPLE LAYERS AND PROPORTIONS :    1, 0.37       2, 0.49       3, 0.14
  3747 1386-42-362     42    362.0       2292.    
     MULTIPLE LAYERS AND PROPORTIONS :    2, 0.86       3, 0.14
  3748 1386-48-337     48    337.0       2298.    
     MULTIPLE LAYERS AND PROPORTIONS :    2, 0.86       3, 0.14
  3749 1386-56-16      56    16.00       2296.    
     MULTIPLE LAYERS AND PROPORTIONS :    2, 0.86       3, 0.14
  3750 1398-48-335     48    335.0       2302.    
     MULTIPLE LAYERS AND PROPORTIONS :    2, 0.45       3, 0.55
  3751 1401-2-1         2   1.0000       2373.    
  3752 1401-12-53      12    53.00       2358.    
  3753 1401-17-60      17    60.00       2362.    
  3754 1401-22-26      22    26.00       2353.    
  3755 1427-17-39      17    39.00       2358.    
  3756 1427-22-31      22    31.00       2350.    
  3757 1427-42-362     42    362.0       2293.    
  3758 1427-48-364     48    364.0       2305.    
  3759 1427-56-33      56    33.00       2285.    
  3760 1378-42-364     42    364.0       2285.    
  3761 1400-1-32        1    32.00       2376.    
 Observation within a steady-state time step has been moved to the end of the time step.
  3762 1400-12-53      12    53.00       2361.    
  3763 1400-17-60      17    60.00       2364.    
  3764 1400-22-26      22    26.00       2355.    
  3765 1400-27-48      27    48.00       2349.    
  3766 1400-36-3       36    3.000       2310.    
  3767 1400-43-5       43    5.000       2292.    
  3768 1400-48-364     48    364.0       2307.    
  3769 1400-56-33      56    33.00       2284.    
  3770 1400-60-363     60    363.0       2248.    
  3771 1400-71-365     71    365.0       2259.    
  3772 1405-7-308       7    308.0       2360.    
  3773 1405-10-34      10    34.00       2359.    
  3774 1405-43-5       43    5.000       2287.    
  3775 1405-48-364     48    364.0       2301.    
  3776 1405-56-33      56    33.00       2278.    
  3777 1405-66-13      66    13.00       2235.    
  3778 1405-71-365     71    365.0       2252.    
  3779 1349-17-41      17    41.00       2357.    
     MULTIPLE LAYERS AND PROPORTIONS :    1, 0.15       2, 0.85
  3780 1349-22-30      22    30.00       2345.    
     MULTIPLE LAYERS AND PROPORTIONS :    1, 0.15       2, 0.85
  3781 1329-1-274       1    274.0       2381.    
 Observation within a steady-state time step has been moved to the end of the time step.
  3782 1329-17-41      17    41.00       2368.    
  3783 1329-22-31      22    31.00       2357.    
  3784 1329-42-364     42    364.0       2285.    
  3785 1329-56-16      56    16.00       2275.    
  3786 1329-66-26      66    26.00       2245.    
  3787 1282-1-277       1    277.0       2407.    
 Observation within a steady-state time step has been moved to the end of the time step.
  3788 1283-1-309       1    309.0       2387.    
 Observation within a steady-state time step has been moved to the end of the time step.
  3789 1283-6-340       6    340.0       2379.    
  3790 1283-11-350     11    350.0       2372.    
  3791 1283-16-301     16    301.0       2369.    
  3792 1283-22-30      22    30.00       2361.    
  3793 1283-27-10      27   10.000       2352.    
  3794 1283-35-345     35    345.0       2312.    
  3795 1274-6-288       6    288.0       2376.    
  3796 1274-12-54      12    54.00       2369.    
  3797 1274-17-41      17    41.00       2373.    
  3798 1274-22-30      22    30.00       2360.    
  3799 1356-43-1       43   1.0000       2285.    
     MULTIPLE LAYERS AND PROPORTIONS :    2, 0.71       3, 0.29
  3800 1347-66-49      66    49.00       2241.    
  3801 1345-55-350     55    350.0       2281.    
     MULTIPLE LAYERS AND PROPORTIONS :    2, 0.74       3, 0.26
  3802 1345-61-33      61    33.00       2244.    
     MULTIPLE LAYERS AND PROPORTIONS :    2, 0.74       3, 0.26
  3803 1345-66-49      66    49.00       2241.    
     MULTIPLE LAYERS AND PROPORTIONS :    2, 0.74       3, 0.26
  3804 1345-71-68      71    68.00       2252.    
     MULTIPLE LAYERS AND PROPORTIONS :    2, 0.74       3, 0.26
  3805 1345-71-365     71    365.0       2257.    
  3806 1321-12-57      12    57.00       2369.    
  3807 1321-17-41      17    41.00       2374.    
  3808 1321-22-27      22    27.00       2361.    
  3809 1321-27-51      27    51.00       2354.    
  3810 1360-56-34      56    34.00       2271.    
     MULTIPLE LAYERS AND PROPORTIONS :    2, 0.64       3, 0.36
  3811 1360-60-362     60    362.0       2240.    
     MULTIPLE LAYERS AND PROPORTIONS :    2, 0.64       3, 0.36
  3812 1360-65-348     65    348.0       2229.    
     MULTIPLE LAYERS AND PROPORTIONS :    2, 0.64       3, 0.36
  3813 1360-71-48      71    48.00       2243.    
     MULTIPLE LAYERS AND PROPORTIONS :    2, 0.64       3, 0.36
  3814 1360-71-365     71    365.0       2248.    
     MULTIPLE LAYERS AND PROPORTIONS :    2, 0.64       3, 0.36
  3815 1328-1-277       1    277.0       2386.    
 Observation within a steady-state time step has been moved to the end of the time step.
  3816 1328-6-295       6    295.0       2377.    
  3817 1306-11-41      11    41.00       2364.    
     MULTIPLE LAYERS AND PROPORTIONS :    1, 0.31       2, 0.69
  3818 1306-17-41      17    41.00       2368.    
     MULTIPLE LAYERS AND PROPORTIONS :    1, 0.31       2, 0.69
  3819 1306-22-27      22    27.00       2356.    
     MULTIPLE LAYERS AND PROPORTIONS :    1, 0.31       2, 0.69
  3820 1306-43-5       43    5.000       2286.    
  3821 1306-48-364     48    364.0       2304.    
  3822 1306-56-33      56    33.00       2272.    
  3823 1306-60-363     60    363.0       2238.    
  3824 1306-66-6       66    6.000       2234.    
     MULTIPLE LAYERS AND PROPORTIONS :    1, 0.31       2, 0.69
  3825 1306-71-60      71    60.00       2246.    
     MULTIPLE LAYERS AND PROPORTIONS :    1, 0.31       2, 0.69
  3826 1306-71-365     71    365.0       2252.    
     MULTIPLE LAYERS AND PROPORTIONS :    1, 0.31       2, 0.69
  3827 1307-1-274       1    274.0       2386.    
 Observation within a steady-state time step has been moved to the end of the time step.
  3828 1307-11-41      11    41.00       2369.    
  3829 1307-17-41      17    41.00       2375.    
  3830 1307-22-27      22    27.00       2362.    
  3831 1307-26-349     26    349.0       2350.    
  3832 1307-48-364     48    364.0       2309.    
  3833 1307-56-33      56    33.00       2279.    
  3834 1307-71-60      71    60.00       2253.    
  3835 1307-71-365     71    365.0       2258.    
  3836 1304-1-274       1    274.0       2381.    
 Observation within a steady-state time step has been moved to the end of the time step.
  3837 1304-11-41      11    41.00       2365.    
  3838 1304-17-32      17    32.00       2370.    
  3839 1304-22-27      22    27.00       2354.    
  3840 1304-26-302     26    302.0       2340.    
  3841 1304-48-364     48    364.0       2301.    
  3842 1304-56-33      56    33.00       2270.    
  3843 1304-60-356     60    356.0       2235.    
  3844 1304-71-60      71    60.00       2244.    
  3845 1281-12-54      12    54.00       2373.    
  3846 1281-17-41      17    41.00       2377.    
  3847 1281-22-30      22    30.00       2365.    
  3848 1281-32-50      32    50.00       2343.    
  3849 1281-37-49      37    49.00       2314.    
  3850 1292-1-274       1    274.0       2389.    
 Observation within a steady-state time step has been moved to the end of the time step.
  3851 1292-17-46      17    46.00       2376.    
  3852 1292-22-27      22    27.00       2363.    
  3853 1292-26-349     26    349.0       2351.    
  3854 1292-43-5       43    5.000       2291.    
  3855 1292-48-364     48    364.0       2311.    
  3856 1272-1-60        1    60.00       2392.    
 Observation within a steady-state time step has been moved to the end of the time step.
  3857 1272-7-176       7    176.0       2374.    
  3858 1272-60-363     60    363.0       2245.    
  3859 1272-65-348     65    348.0       2241.    
  3860 1272-71-365     71    365.0       2258.    
  3861 1298-42-362     42    362.0       2292.    
     MULTIPLE LAYERS AND PROPORTIONS :    2, 0.43       3, 0.57
  3862 1298-56-10      56   10.000       2279.    
     MULTIPLE LAYERS AND PROPORTIONS :    2, 0.43       3, 0.57
  3863 1298-60-363     60    363.0       2244.    
     MULTIPLE LAYERS AND PROPORTIONS :    2, 0.43       3, 0.57
  3864 1298-66-13      66    13.00       2240.    
     MULTIPLE LAYERS AND PROPORTIONS :    2, 0.43       3, 0.57
  3865 1298-71-365     71    365.0       2257.    
     MULTIPLE LAYERS AND PROPORTIONS :    2, 0.43       3, 0.57
  3866 1299-56-10      56   10.000       2280.    
  3867 1299-66-13      66    13.00       2240.    
  3868 1299-71-365     71    365.0       2255.    
  3869 1294-43-5       43    5.000       2283.    
  3870 1294-48-364     48    364.0       2302.    
  3871 1294-56-10      56   10.000       2272.    
  3872 1294-60-363     60    363.0       2237.    
  3873 1294-66-13      66    13.00       2233.    
     MULTIPLE LAYERS AND PROPORTIONS :    1, 0.30       2, 0.70
  3874 1294-71-365     71    365.0       2251.    
     MULTIPLE LAYERS AND PROPORTIONS :    1, 0.30       2, 0.70
  3875 1296-71-60      71    60.00       2249.    
     MULTIPLE LAYERS AND PROPORTIONS :    2, 0.15       3, 0.85
  3876 1288-56-10      56   10.000       2281.    
  3877 1288-66-13      66    13.00       2242.    
  3878 1288-71-41      71    41.00       2251.    
  3879 1288-71-365     71    365.0       2257.    
  3880 1285-60-361     60    361.0       2244.    
     MULTIPLE LAYERS AND PROPORTIONS :    2, 0.38       3, 0.62
  3881 1285-71-365     71    365.0       2257.    
     MULTIPLE LAYERS AND PROPORTIONS :    2, 0.38       3, 0.62
  3882 1291-60-361     60    361.0       2243.    
     MULTIPLE LAYERS AND PROPORTIONS :    2, 0.39       3, 0.61
  3883 1291-71-365     71    365.0       2257.    
     MULTIPLE LAYERS AND PROPORTIONS :    2, 0.39       3, 0.61
  3884 1287-60-361     60    361.0       2245.    
     MULTIPLE LAYERS AND PROPORTIONS :    2, 0.39       3, 0.61
  3885 1287-71-365     71    365.0       2258.    
     MULTIPLE LAYERS AND PROPORTIONS :    2, 0.39       3, 0.61
  3886 1342-71-62      71    62.00       2342.    
     MULTIPLE LAYERS AND PROPORTIONS :    1, 0.62       2, 0.38
  3887 1342-71-365     71    365.0       2341.    
     MULTIPLE LAYERS AND PROPORTIONS :    1, 0.62       2, 0.38
  3888 1346-11-40      11    40.00       2376.    
  3889 1346-17-44      17    44.00       2376.    
  3890 1346-22-27      22    27.00       2364.    
  3891 1346-27-59      27    59.00       2357.    
  3892 1346-32-50      32    50.00       2357.    
  3893 1346-42-362     42    362.0       2298.    
  3894 1346-48-357     48    357.0       2313.    
  3895 1346-56-32      56    32.00       2285.    
  3896 1346-60-363     60    363.0       2302.    
  3897 1346-71-62      71    62.00       2262.    
  3898 1346-71-365     71    365.0       2268.    
  3899 1351-71-62      71    62.00       2310.    
  3900 1351-71-365     71    365.0       2310.    
  3901 1305-12-57      12    57.00       2382.    
  3902 1305-17-46      17    46.00       2384.    
  3903 1305-22-27      22    27.00       2366.    
  3904 1305-42-362     42    362.0       2294.    
  3905 1305-48-357     48    357.0       2312.    
  3906 1305-55-357     55    357.0       2285.    
  3907 1305-60-342     60    342.0       2251.    
  3908 1305-66-59      66    59.00       2248.    
  3909 1305-71-20      71    20.00       2255.    
  3910 1305-71-365     71    365.0       2261.    
  3911 1286-1-91        1    91.00       2419.    
 Observation within a steady-state time step has been moved to the end of the time step.
  3912 1284-60-361     60    361.0       2246.    
     MULTIPLE LAYERS AND PROPORTIONS :    2, 0.53       3, 0.47
  3913 1284-65-356     65    356.0       2240.    
     MULTIPLE LAYERS AND PROPORTIONS :    2, 0.53       3, 0.47
  3914 1284-71-365     71    365.0       2258.    
     MULTIPLE LAYERS AND PROPORTIONS :    2, 0.53       3, 0.47
  3915 1271-42-362     42    362.0       2294.    
     MULTIPLE LAYERS AND PROPORTIONS :    2, 0.43       3, 0.57
  3916 1271-56-10      56   10.000       2284.    
     MULTIPLE LAYERS AND PROPORTIONS :    2, 0.43       3, 0.57
  3917 1271-60-363     60    363.0       2250.    
     MULTIPLE LAYERS AND PROPORTIONS :    2, 0.43       3, 0.57
  3918 1271-66-13      66    13.00       2244.    
     MULTIPLE LAYERS AND PROPORTIONS :    1, 0.22       2, 0.21       3, 0.57
  3919 1271-71-62      71    62.00       2255.    
     MULTIPLE LAYERS AND PROPORTIONS :    1, 0.22       2, 0.21       3, 0.57
  3920 1271-71-365     71    365.0       2259.    
     MULTIPLE LAYERS AND PROPORTIONS :    1, 0.22       2, 0.21       3, 0.57
  3921 1293-56-10      56   10.000       2282.    
  3922 1293-66-13      66    13.00       2243.    
  3923 1293-71-47      71    47.00       2251.    
  3924 1293-71-365     71    365.0       2257.    
  3925 1898-10-252     10    252.0       2397.    
  3926 1873-10-252     10    252.0       2394.    
  3927 1763-10-252     10    252.0       2409.    
  3928 1762-7-161       7    161.0       2417.    
     MULTIPLE LAYERS AND PROPORTIONS :    1, 0.89       2, 0.11
  3929 1762-22-60      22    60.00       2383.    
     MULTIPLE LAYERS AND PROPORTIONS :    1, 0.89       2, 0.11
  3930 1776-42-355     42    355.0       2284.    
     MULTIPLE LAYERS AND PROPORTIONS :    1, 0.57       2, 0.43
  3931 1776-56-27      56    27.00       2238.    
     MULTIPLE LAYERS AND PROPORTIONS :    1, 0.57       2, 0.43
  3932 1776-66-54      66    54.00       2214.    
     MULTIPLE LAYERS AND PROPORTIONS :    1, 0.57       2, 0.43
  3933 1776-71-64      71    64.00       2224.    
     MULTIPLE LAYERS AND PROPORTIONS :    1, 0.57       2, 0.43
  3934 1776-71-365     71    365.0       2228.    
     MULTIPLE LAYERS AND PROPORTIONS :    1, 0.57       2, 0.43
  3935 1775-42-355     42    355.0       2284.    
  3936 1775-56-27      56    27.00       2239.    
  3937 1775-66-54      66    54.00       2213.    
  3938 1775-71-64      71    64.00       2224.    
  3939 1775-71-365     71    365.0       2228.    
  3940 1905-10-252     10    252.0       2395.    
  3941 1875-10-252     10    252.0       2391.    
  3942 1877-22-79      22    79.00       2360.    
  3943 1877-42-356     42    356.0       2273.    
  3944 1877-48-355     48    355.0       2238.    
  3945 1877-66-59      66    59.00       2185.    
  3946 1877-71-64      71    64.00       2205.    
  3947 1877-71-365     71    365.0       2210.    
  3948 1878-42-356     42    356.0       2273.    
  3949 1878-48-356     48    356.0       2239.    
  3950 1878-56-10      56   10.000       2207.    
  3951 1878-61-26      61    26.00       2176.    
  3952 1878-66-59      66    59.00       2186.    
  3953 1878-71-64      71    64.00       2207.    
  3954 1878-71-365     71    365.0       2211.    
  3955 1926-42-363     42    363.0       2274.    
  3956 1886-22-79      22    79.00       2353.    
  3957 1886-26-349     26    349.0       2341.    
  3958 1886-42-362     42    362.0       2271.    
  3959 1886-48-357     48    357.0       2237.    
  3960 1886-56-24      56    24.00       2201.    
  3961 1886-66-1       66   1.0000       2173.    
  3962 1886-71-62      71    62.00       2198.    
  3963 1886-71-365     71    365.0       2203.    
  3964 1852-10-255     10    255.0       2390.    
  3965 1822-10-255     10    255.0       2384.    
  3966 1786-66-19      66    19.00       2167.    
  3967 1786-71-33      71    33.00       2188.    
  3968 1786-71-365     71    365.0       2192.    
  3969 1851-10-252     10    252.0       2391.    
  3970 1791-12-116     12    116.0       2390.    
     MULTIPLE LAYERS AND PROPORTIONS :    1, 0.28       2, 0.72
  3971 1791-22-79      22    79.00       2356.    
     MULTIPLE LAYERS AND PROPORTIONS :    1, 0.28       2, 0.72
  3972 1791-26-294     26    294.0       2344.    
     MULTIPLE LAYERS AND PROPORTIONS :    1, 0.28       2, 0.72
  3973 1791-42-356     42    356.0       2270.    
     MULTIPLE LAYERS AND PROPORTIONS :    1, 0.28       2, 0.72
  3974 1791-48-356     48    356.0       2235.    
     MULTIPLE LAYERS AND PROPORTIONS :    1, 0.28       2, 0.72
  3975 1791-66-56      66    56.00       2187.    
     MULTIPLE LAYERS AND PROPORTIONS :    1, 0.28       2, 0.72
  3976 1791-71-33      71    33.00       2203.    
     MULTIPLE LAYERS AND PROPORTIONS :    1, 0.28       2, 0.72
  3977 1791-71-365     71    365.0       2208.    
     MULTIPLE LAYERS AND PROPORTIONS :    1, 0.28       2, 0.72
  3978 1785-42-356     42    356.0       2271.    
     MULTIPLE LAYERS AND PROPORTIONS :    1, 0.24       2, 0.76
  3979 1785-48-356     48    356.0       2235.    
     MULTIPLE LAYERS AND PROPORTIONS :    1, 0.24       2, 0.76
  3980 1785-56-10      56   10.000       2212.    
     MULTIPLE LAYERS AND PROPORTIONS :    1, 0.24       2, 0.76
  3981 1785-61-26      61    26.00       2173.    
     MULTIPLE LAYERS AND PROPORTIONS :    1, 0.24       2, 0.76
  3982 1785-66-56      66    56.00       2186.    
     MULTIPLE LAYERS AND PROPORTIONS :    1, 0.24       2, 0.76
  3983 1785-71-33      71    33.00       2203.    
     MULTIPLE LAYERS AND PROPORTIONS :    1, 0.24       2, 0.76
  3984 1785-71-365     71    365.0       2208.    
     MULTIPLE LAYERS AND PROPORTIONS :    1, 0.24       2, 0.76
  3985 1928-10-256     10    256.0       2381.    
  3986 1879-12-111     12    111.0       2376.    
     MULTIPLE LAYERS AND PROPORTIONS :    1, 0.20       2, 0.80
  3987 1879-22-79      22    79.00       2350.    
     MULTIPLE LAYERS AND PROPORTIONS :    1, 0.20       2, 0.80
  3988 1879-42-362     42    362.0       2268.    
     MULTIPLE LAYERS AND PROPORTIONS :    1, 0.20       2, 0.80
  3989 1879-48-357     48    357.0       2235.    
     MULTIPLE LAYERS AND PROPORTIONS :    1, 0.20       2, 0.80
  3990 1879-55-353     55    353.0       2199.    
     MULTIPLE LAYERS AND PROPORTIONS :    1, 0.20       2, 0.80
  3991 1879-60-313     60    313.0       2201.    
     MULTIPLE LAYERS AND PROPORTIONS :    1, 0.20       2, 0.80
  3992 1879-71-49      71    49.00       2192.    
     MULTIPLE LAYERS AND PROPORTIONS :    1, 0.20       2, 0.80
  3993 1879-71-365     71    365.0       2198.    
     MULTIPLE LAYERS AND PROPORTIONS :    1, 0.20       2, 0.80
  3994 1824-10-256     10    256.0       2376.    
  3995 1811-7-156       7    156.0       2379.    
     MULTIPLE LAYERS AND PROPORTIONS :    1, 0.33       2, 0.67
  3996 1811-22-79      22    79.00       2341.    
     MULTIPLE LAYERS AND PROPORTIONS :    1, 0.33       2, 0.67
  3997 1811-32-32      32    32.00       2314.    
     MULTIPLE LAYERS AND PROPORTIONS :    1, 0.33       2, 0.67
  3998 1811-48-357     48    357.0       2232.    
     MULTIPLE LAYERS AND PROPORTIONS :    1, 0.33       2, 0.67
  3999 1811-55-354     55    354.0       2190.    
     MULTIPLE LAYERS AND PROPORTIONS :    1, 0.33       2, 0.67
  4000 1811-60-349     60    349.0       2149.    
     MULTIPLE LAYERS AND PROPORTIONS :    1, 0.33       2, 0.67
  4001 1811-65-355     65    355.0       2161.    
     MULTIPLE LAYERS AND PROPORTIONS :    1, 0.33       2, 0.67
  4002 1811-71-68      71    68.00       2187.    
     MULTIPLE LAYERS AND PROPORTIONS :    1, 0.33       2, 0.67
  4003 1811-71-365     71    365.0       2193.    
     MULTIPLE LAYERS AND PROPORTIONS :    1, 0.33       2, 0.67
  4004 1777-10-256     10    256.0       2378.    
  4005 1823-42-362     42    362.0       2268.    
     MULTIPLE LAYERS AND PROPORTIONS :    1, 0.44       2, 0.56
  4006 1823-48-357     48    357.0       2235.    
     MULTIPLE LAYERS AND PROPORTIONS :    1, 0.44       2, 0.56
  4007 1823-56-32      56    32.00       2194.    
     MULTIPLE LAYERS AND PROPORTIONS :    1, 0.45       2, 0.55
  4008 1823-60-313     60    313.0       2165.    
     MULTIPLE LAYERS AND PROPORTIONS :    1, 0.45       2, 0.55
  4009 1823-66-19      66    19.00       2171.    
     MULTIPLE LAYERS AND PROPORTIONS :    1, 0.45       2, 0.55
  4010 1823-71-49      71    49.00       2194.    
     MULTIPLE LAYERS AND PROPORTIONS :    1, 0.45       2, 0.55
  4011 1823-71-365     71    365.0       2200.    
     MULTIPLE LAYERS AND PROPORTIONS :    1, 0.45       2, 0.55
  4012 1744-10-256     10    256.0       2381.    
  4013 1907-12-116     12    116.0       2361.    
  4014 1907-22-79      22    79.00       2337.    
  4015 1907-42-362     42    362.0       2259.    
  4016 1907-48-357     48    357.0       2229.    
  4017 1907-71-365     71    365.0       2189.    
  4018 1906-42-362     42    362.0       2259.    
     MULTIPLE LAYERS AND PROPORTIONS :    1, 0.34       2, 0.66
  4019 1906-48-357     48    357.0       2230.    
     MULTIPLE LAYERS AND PROPORTIONS :    1, 0.34       2, 0.66
  4020 1906-55-356     55    356.0       2188.    
     MULTIPLE LAYERS AND PROPORTIONS :    1, 0.34       2, 0.66
  4021 1906-60-341     60    341.0       2164.    
     MULTIPLE LAYERS AND PROPORTIONS :    1, 0.34       2, 0.66
  4022 1906-65-355     65    355.0       2153.    
     MULTIPLE LAYERS AND PROPORTIONS :    1, 0.34       2, 0.66
  4023 1906-71-32      71    32.00       2182.    
     MULTIPLE LAYERS AND PROPORTIONS :    1, 0.34       2, 0.66
  4024 1906-71-365     71    365.0       2189.    
     MULTIPLE LAYERS AND PROPORTIONS :    1, 0.34       2, 0.66
  4025 1899-66-19      66    19.00       2159.    
  4026 1899-71-32      71    32.00       2181.    
  4027 1899-71-365     71    365.0       2188.    
  4028 1778-12-261     12    261.0       2348.    
  4029 1764-10-257     10    257.0       2360.    
  4030 1765-42-362     42    362.0       2257.    
     MULTIPLE LAYERS AND PROPORTIONS :    1, 0.15       2, 0.85
  4031 1765-48-357     48    357.0       2229.    
     MULTIPLE LAYERS AND PROPORTIONS :    1, 0.15       2, 0.85
  4032 1765-55-354     55    354.0       2179.    
     MULTIPLE LAYERS AND PROPORTIONS :    1, 0.15       2, 0.85
  4033 1765-60-349     60    349.0       2153.    
     MULTIPLE LAYERS AND PROPORTIONS :    1, 0.15       2, 0.85
  4034 1765-66-56      66    56.00       2160.    
     MULTIPLE LAYERS AND PROPORTIONS :    1, 0.15       2, 0.85
  4035 1765-71-32      71    32.00       2181.    
     MULTIPLE LAYERS AND PROPORTIONS :    1, 0.15       2, 0.85
  4036 1765-71-365     71    365.0       2188.    
     MULTIPLE LAYERS AND PROPORTIONS :    1, 0.15       2, 0.85
  4037 1816-10-153     10    153.0       2360.    
  4038 1825-42-335     42    335.0       2255.    
     MULTIPLE LAYERS AND PROPORTIONS :    1, 0.14       2, 0.86
  4039 1825-48-357     48    357.0       2225.    
     MULTIPLE LAYERS AND PROPORTIONS :    1, 0.14       2, 0.86
  4040 1825-56-27      56    27.00       2180.    
     MULTIPLE LAYERS AND PROPORTIONS :    1, 0.14       2, 0.86
  4041 1825-61-42      61    42.00       2142.    
     MULTIPLE LAYERS AND PROPORTIONS :    1, 0.14       2, 0.86
  4042 1825-66-19      66    19.00       2156.    
     MULTIPLE LAYERS AND PROPORTIONS :    1, 0.14       2, 0.86
  4043 1825-71-32      71    32.00       2178.    
     MULTIPLE LAYERS AND PROPORTIONS :    1, 0.14       2, 0.86
  4044 1825-71-365     71    365.0       2185.    
     MULTIPLE LAYERS AND PROPORTIONS :    1, 0.14       2, 0.86
  4045 1888-22-79      22    79.00       2317.    
  4046 1888-32-32      32    32.00       2295.    
  4047 1888-42-362     42    362.0       2247.    
  4048 1888-48-357     48    357.0       2222.    
  4049 1888-65-355     65    355.0       2147.    
  4050 1888-71-32      71    32.00       2173.    
  4051 1888-71-365     71    365.0       2179.    
  4052 1890-42-362     42    362.0       2247.    
     MULTIPLE LAYERS AND PROPORTIONS :    1, 0.20       2, 0.80
  4053 1890-48-357     48    357.0       2222.    
     MULTIPLE LAYERS AND PROPORTIONS :    1, 0.20       2, 0.80
  4054 1890-55-350     55    350.0       2180.    
     MULTIPLE LAYERS AND PROPORTIONS :    1, 0.20       2, 0.80
  4055 1890-61-42      61    42.00       2153.    
     MULTIPLE LAYERS AND PROPORTIONS :    1, 0.20       2, 0.80
  4056 1890-66-19      66    19.00       2152.    
     MULTIPLE LAYERS AND PROPORTIONS :    1, 0.20       2, 0.80
  4057 1890-71-32      71    32.00       2176.    
     MULTIPLE LAYERS AND PROPORTIONS :    1, 0.20       2, 0.80
  4058 1890-71-365     71    365.0       2180.    
     MULTIPLE LAYERS AND PROPORTIONS :    1, 0.20       2, 0.80
  4059 1812-12-91      12    91.00       2340.    
  4060 1812-22-62      22    62.00       2314.    
  4061 1812-32-60      32    60.00       2298.    
  4062 1827-42-362     42    362.0       2250.    
  4063 1827-48-357     48    357.0       2224.    
  4064 1827-56-25      56    25.00       2183.    
  4065 1827-61-42      61    42.00       2153.    
  4066 1827-66-19      66    19.00       2155.    
  4067 1827-71-32      71    32.00       2178.    
  4068 1827-71-365     71    365.0       2184.    
  4069 1779-12-109     12    109.0       2333.    
  4070 1779-17-80      17    80.00       2325.    
  4071 1779-22-79      22    79.00       2314.    
  4072 1779-42-362     42    362.0       2247.    
  4073 1870-42-364     42    364.0       2234.    
  4074 1817-56-20      56    20.00       2185.    
  4075 1817-66-34      66    34.00       2159.    
  4076 1747-71-60      71    60.00       2179.    
  4077 1722-1-152       1    152.0       2342.    
 Observation within a steady-state time step has been moved to the end of the time step.
  4078 1722-22-80      22    80.00       2297.    
  4079 1722-26-349     26    349.0       2292.    
  4080 1722-32-32      32    32.00       2282.    
  4081 1722-42-362     42    362.0       2237.    
  4082 1722-48-357     48    357.0       2221.    
  4083 1722-56-24      56    24.00       2192.    
  4084 1722-61-11      61    11.00       2180.    
  4085 1722-66-59      66    59.00       2175.    
  4086 1722-71-56      71    56.00       2178.    
  4087 1722-71-365     71    365.0       2182.    
  4088 1668-56-20      56    20.00       2191.    
  4089 1666-66-34      66    34.00       2190.    
  4090 1718-56-20      56    20.00       2187.    
     MULTIPLE LAYERS AND PROPORTIONS :    1, 0.79       2, 0.21
  4091 1718-61-59      61    59.00       2146.    
     MULTIPLE LAYERS AND PROPORTIONS :    1, 0.79       2, 0.21
  4092 1718-66-34      66    34.00       2164.    
     MULTIPLE LAYERS AND PROPORTIONS :    1, 0.79       2, 0.21
  4093 1662-56-20      56    20.00       2204.    
     MULTIPLE LAYERS AND PROPORTIONS :    1, 0.17       2, 0.83
  4094 1664-66-34      66    34.00       2183.    
  4095 1664-71-60      71    60.00       2192.    
  4096 1641-66-34      66    34.00       2201.    
  4097 1619-1-365       1    365.0       2394.    
 Observation within a steady-state time step has been moved to the end of the time step.
     MULTIPLE LAYERS AND PROPORTIONS :    1, 0.59       2, 0.41
  4098 1619-8-57        8    57.00       2377.    
     MULTIPLE LAYERS AND PROPORTIONS :    1, 0.59       2, 0.41
  4099 1619-12-59      12    59.00       2359.    
     MULTIPLE LAYERS AND PROPORTIONS :    1, 0.59       2, 0.41
  4100 1619-17-87      17    87.00       2354.    
     MULTIPLE LAYERS AND PROPORTIONS :    1, 0.59       2, 0.41
  4101 1619-22-79      22    79.00       2342.    
     MULTIPLE LAYERS AND PROPORTIONS :    1, 0.59       2, 0.41
  4102 1619-42-335     42    335.0       2296.    
     MULTIPLE LAYERS AND PROPORTIONS :    1, 0.59       2, 0.41
  4103 1608-35-121     35    121.0       2274.    
     MULTIPLE LAYERS AND PROPORTIONS :    1, 0.62       2, 0.38
  4104 1608-42-362     42    362.0       2247.    
     MULTIPLE LAYERS AND PROPORTIONS :    1, 0.62       2, 0.38
  4105 1608-48-357     48    357.0       2236.    
     MULTIPLE LAYERS AND PROPORTIONS :    1, 0.62       2, 0.38
  4106 1608-55-340     55    340.0       2209.    
     MULTIPLE LAYERS AND PROPORTIONS :    1, 0.62       2, 0.38
  4107 1608-60-348     60    348.0       2202.    
     MULTIPLE LAYERS AND PROPORTIONS :    1, 0.62       2, 0.38
  4108 1608-66-5       66    5.000       2200.    
     MULTIPLE LAYERS AND PROPORTIONS :    1, 0.62       2, 0.38
  4109 1608-71-1       71   1.0000       2203.    
     MULTIPLE LAYERS AND PROPORTIONS :    1, 0.62       2, 0.38
  4110 1608-71-365     71    365.0       2204.    
     MULTIPLE LAYERS AND PROPORTIONS :    1, 0.62       2, 0.38
  4111 1714-56-33      56    33.00       2195.    
  4112 1714-71-29      71    29.00       2178.    
  4113 1714-71-365     71    365.0       2182.    
  4114 1715-66-59      66    59.00       2166.    
  4115 1715-71-29      71    29.00       2178.    
  4116 1715-71-365     71    365.0       2183.    
  4117 1716-66-59      66    59.00       2166.    
  4118 1716-71-29      71    29.00       2177.    
  4119 1716-71-365     71    365.0       2181.    
  4120 1717-71-32      71    32.00       2177.    
  4121 1717-71-365     71    365.0       2181.    
  4122 1689-71-29      71    29.00       2180.    
  4123 1689-71-365     71    365.0       2183.    
  4124 1696-66-59      66    59.00       2170.    
  4125 1696-71-29      71    29.00       2180.    
  4126 1696-71-365     71    365.0       2183.    
  4127 1673-2-274       2    274.0       2365.    
     MULTIPLE LAYERS AND PROPORTIONS :    1, 0.81       2, 0.19
  4128 1673-8-57        8    57.00       2356.    
     MULTIPLE LAYERS AND PROPORTIONS :    1, 0.81       2, 0.19
  4129 1673-12-59      12    59.00       2341.    
     MULTIPLE LAYERS AND PROPORTIONS :    1, 0.81       2, 0.19
  4130 1673-17-87      17    87.00       2331.    
     MULTIPLE LAYERS AND PROPORTIONS :    1, 0.81       2, 0.19
  4131 1673-22-79      22    79.00       2324.    
     MULTIPLE LAYERS AND PROPORTIONS :    1, 0.81       2, 0.19
  4132 1673-42-363     42    363.0       2258.    
     MULTIPLE LAYERS AND PROPORTIONS :    1, 0.81       2, 0.19
  4133 1673-48-357     48    357.0       2234.    
     MULTIPLE LAYERS AND PROPORTIONS :    1, 0.81       2, 0.19
  4134 1673-56-24      56    24.00       2195.    
     MULTIPLE LAYERS AND PROPORTIONS :    1, 0.81       2, 0.19
  4135 1723-1-32        1    32.00       2370.    
 Observation within a steady-state time step has been moved to the end of the time step.
  4136 1723-12-59      12    59.00       2331.    
  4137 1723-17-87      17    87.00       2319.    
  4138 1723-22-80      22    80.00       2306.    
  4139 1723-42-363     42    363.0       2250.    
  4140 1723-48-357     48    357.0       2231.    
  4141 1723-56-24      56    24.00       2195.    
  4142 1723-60-348     60    348.0       2174.    
  4143 1723-66-59      66    59.00       2169.    
  4144 1723-71-32      71    32.00       2180.    
  4145 1723-71-365     71    365.0       2185.    
  4146 1724-1-365       1    365.0       2346.    
 Observation within a steady-state time step has been moved to the end of the time step.
  4147 1724-12-59      12    59.00       2327.    
  4148 1724-17-82      17    82.00       2317.    
  4149 1724-22-80      22    80.00       2304.    
  4150 1724-42-363     42    363.0       2247.    
  4151 1724-48-357     48    357.0       2230.    
  4152 1724-56-20      56    20.00       2196.    
  4153 1724-60-348     60    348.0       2180.    
  4154 1724-66-59      66    59.00       2175.    
  4155 1724-71-56      71    56.00       2182.    
  4156 1724-71-365     71    365.0       2186.    
  4157 1694-17-82      17    82.00       2345.    
     MULTIPLE LAYERS AND PROPORTIONS :    1, 0.79       2, 0.21
  4158 1694-22-80      22    80.00       2332.    
     MULTIPLE LAYERS AND PROPORTIONS :    1, 0.79       2, 0.21
  4159 1699-42-363     42    363.0       2258.    
  4160 1699-48-357     48    357.0       2227.    
  4161 1699-55-356     55    356.0       2177.    
  4162 1699-60-349     60    349.0       2146.    
  4163 1699-66-56      66    56.00       2161.    
  4164 1699-71-32      71    32.00       2177.    
  4165 1699-71-365     71    365.0       2185.    
  4166 1695-7-158       7    158.0       2368.    
  4167 1695-42-363     42    363.0       2263.    
  4168 1695-48-357     48    357.0       2234.    
  4169 1695-56-24      56    24.00       2185.    
  4170 1695-60-336     60    336.0       2192.    
  4171 1695-66-56      66    56.00       2168.    
  4172 1695-71-56      71    56.00       2184.    
  4173 1695-71-365     71    365.0       2190.    
  4174 1658-2-217       2    217.0       2372.    
     MULTIPLE LAYERS AND PROPORTIONS :    1, 0.83       2, 0.17
  4175 1658-8-58        8    58.00       2367.    
     MULTIPLE LAYERS AND PROPORTIONS :    1, 0.83       2, 0.17
  4176 1658-12-59      12    59.00       2352.    
     MULTIPLE LAYERS AND PROPORTIONS :    1, 0.83       2, 0.17
  4177 1658-17-87      17    87.00       2338.    
     MULTIPLE LAYERS AND PROPORTIONS :    1, 0.83       2, 0.17
  4178 1658-22-81      22    81.00       2328.    
     MULTIPLE LAYERS AND PROPORTIONS :    1, 0.83       2, 0.17
  4179 1652-42-363     42    363.0       2266.    
  4180 1652-48-357     48    357.0       2241.    
  4181 1652-56-24      56    24.00       2202.    
  4182 1652-60-349     60    349.0       2177.    
  4183 1652-66-1       66   1.0000       2177.    
  4184 1652-71-76      71    76.00       2192.    
  4185 1652-71-365     71    365.0       2196.    
  4186 1633-12-96      12    96.00       2371.    
  4187 1633-17-89      17    89.00       2356.    
  4188 1633-42-355     42    355.0       2266.    
  4189 1713-61-54      61    54.00       2157.    
  4190 1713-66-56      66    56.00       2183.    
  4191 1713-71-64      71    64.00       2202.    
  4192 1713-71-365     71    365.0       2207.    
  4193 1670-42-357     42    357.0       2269.    
     MULTIPLE LAYERS AND PROPORTIONS :    1, 0.40       2, 0.60
  4194 1656-22-80      22    80.00       2344.    
  4195 1656-31-351     31    351.0       2319.    
  4196 1656-37-343     37    343.0       2281.    
  4197 1656-55-360     55    360.0       2198.    
  4198 1656-61-42      61    42.00       2155.    
  4199 1656-66-56      66    56.00       2179.    
  4200 1656-71-33      71    33.00       2195.    
  4201 1656-71-365     71    365.0       2200.    
  4202 1655-17-89      17    89.00       2365.    
     MULTIPLE LAYERS AND PROPORTIONS :    1, 0.98       2, 0.02
  4203 1655-22-80      22    80.00       2348.    
     MULTIPLE LAYERS AND PROPORTIONS :    1, 0.98       2, 0.02
  4204 1655-42-355     42    355.0       2271.    
     MULTIPLE LAYERS AND PROPORTIONS :    1, 0.98       2, 0.02
  4205 1655-48-364     48    364.0       2236.    
     MULTIPLE LAYERS AND PROPORTIONS :    1, 0.98       2, 0.02
  4206 1651-42-362     42    362.0       2268.    
  4207 1651-48-355     48    355.0       2239.    
  4208 1657-60-349     60    349.0       2162.    
     MULTIPLE LAYERS AND PROPORTIONS :    2, 0.88       3, 0.12
  4209 1657-66-56      66    56.00       2177.    
     MULTIPLE LAYERS AND PROPORTIONS :    2, 0.88       3, 0.12
  4210 1657-71-32      71    32.00       2193.    
     MULTIPLE LAYERS AND PROPORTIONS :    2, 0.88       3, 0.12
  4211 1657-71-365     71    365.0       2198.    
     MULTIPLE LAYERS AND PROPORTIONS :    2, 0.88       3, 0.12
  4212 1614-12-96      12    96.00       2380.    
  4213 1614-17-89      17    89.00       2369.    
  4214 1614-22-80      22    80.00       2347.    
  4215 1615-17-89      17    89.00       2366.    
  4216 1615-22-80      22    80.00       2347.    
  4217 1615-42-356     42    356.0       2273.    
  4218 1615-48-355     48    355.0       2242.    
  4219 1615-56-20      56    20.00       2207.    
  4220 1615-61-31      61    31.00       2163.    
  4221 1615-66-56      66    56.00       2186.    
  4222 1615-71-33      71    33.00       2200.    
  4223 1615-71-365     71    365.0       2204.    
  4224 1611-42-356     42    356.0       2272.    
     MULTIPLE LAYERS AND PROPORTIONS :    1, 0.19       2, 0.81
  4225 1611-48-355     48    355.0       2241.    
     MULTIPLE LAYERS AND PROPORTIONS :    1, 0.19       2, 0.81
  4226 1611-56-20      56    20.00       2207.    
     MULTIPLE LAYERS AND PROPORTIONS :    1, 0.19       2, 0.81
  4227 1611-61-31      61    31.00       2163.    
     MULTIPLE LAYERS AND PROPORTIONS :    1, 0.19       2, 0.81
  4228 1611-66-56      66    56.00       2185.    
     MULTIPLE LAYERS AND PROPORTIONS :    1, 0.19       2, 0.81
  4229 1611-71-33      71    33.00       2199.    
     MULTIPLE LAYERS AND PROPORTIONS :    1, 0.19       2, 0.81
  4230 1611-71-365     71    365.0       2204.    
     MULTIPLE LAYERS AND PROPORTIONS :    1, 0.19       2, 0.81
  4231 1708-42-357     42    357.0       2272.    
     MULTIPLE LAYERS AND PROPORTIONS :    1, 0.49       2, 0.51
  4232 1708-48-341     48    341.0       2223.    
     MULTIPLE LAYERS AND PROPORTIONS :    1, 0.49       2, 0.51
  4233 1693-17-87      17    87.00       2379.    
  4234 1693-22-79      22    79.00       2362.    
  4235 1693-42-356     42    356.0       2271.    
  4236 1693-48-356     48    356.0       2236.    
  4237 1687-42-356     42    356.0       2273.    
     MULTIPLE LAYERS AND PROPORTIONS :    1, 0.19       2, 0.81
  4238 1687-48-356     48    356.0       2238.    
     MULTIPLE LAYERS AND PROPORTIONS :    1, 0.19       2, 0.81
  4239 1687-56-27      56    27.00       2207.    
     MULTIPLE LAYERS AND PROPORTIONS :    1, 0.19       2, 0.81
  4240 1687-61-26      61    26.00       2181.    
     MULTIPLE LAYERS AND PROPORTIONS :    1, 0.19       2, 0.81
  4241 1687-66-56      66    56.00       2192.    
     MULTIPLE LAYERS AND PROPORTIONS :    1, 0.19       2, 0.81
  4242 1687-71-33      71    33.00       2207.    
     MULTIPLE LAYERS AND PROPORTIONS :    1, 0.19       2, 0.81
  4243 1687-71-365     71    365.0       2212.    
     MULTIPLE LAYERS AND PROPORTIONS :    1, 0.19       2, 0.81
  4244 1681-17-87      17    87.00       2373.    
  4245 1681-22-79      22    79.00       2354.    
  4246 1681-26-294     26    294.0       2343.    
  4247 1681-48-356     48    356.0       2235.    
  4248 1681-66-56      66    56.00       2184.    
  4249 1681-71-33      71    33.00       2201.    
  4250 1681-71-365     71    365.0       2202.    
  4251 1688-42-356     42    356.0       2269.    
     MULTIPLE LAYERS AND PROPORTIONS :    1, 0.16       2, 0.84
  4252 1688-48-356     48    356.0       2235.    
     MULTIPLE LAYERS AND PROPORTIONS :    1, 0.16       2, 0.84
  4253 1688-55-364     55    364.0       2210.    
     MULTIPLE LAYERS AND PROPORTIONS :    1, 0.16       2, 0.84
  4254 1688-61-21      61    21.00       2182.    
     MULTIPLE LAYERS AND PROPORTIONS :    1, 0.16       2, 0.84
  4255 1688-66-56      66    56.00       2184.    
     MULTIPLE LAYERS AND PROPORTIONS :    1, 0.16       2, 0.84
  4256 1688-71-33      71    33.00       2201.    
     MULTIPLE LAYERS AND PROPORTIONS :    1, 0.16       2, 0.84
  4257 1688-71-365     71    365.0       2203.    
     MULTIPLE LAYERS AND PROPORTIONS :    1, 0.16       2, 0.84
  4258 1596-12-96      12    96.00       2385.    
  4259 1596-22-81      22    81.00       2353.    
  4260 1596-42-356     42    356.0       2271.    
  4261 1621-42-356     42    356.0       2275.    
     MULTIPLE LAYERS AND PROPORTIONS :    1, 0.46       2, 0.54
  4262 1621-48-356     48    356.0       2242.    
     MULTIPLE LAYERS AND PROPORTIONS :    1, 0.46       2, 0.54
  4263 1621-56-6       56    6.000       2216.    
     MULTIPLE LAYERS AND PROPORTIONS :    1, 0.46       2, 0.54
  4264 1621-61-42      61    42.00       2165.    
     MULTIPLE LAYERS AND PROPORTIONS :    1, 0.46       2, 0.54
  4265 1621-65-355     65    355.0       2189.    
     MULTIPLE LAYERS AND PROPORTIONS :    1, 0.46       2, 0.54
  4266 1621-71-33      71    33.00       2206.    
     MULTIPLE LAYERS AND PROPORTIONS :    1, 0.46       2, 0.54
  4267 1621-71-365     71    365.0       2209.    
     MULTIPLE LAYERS AND PROPORTIONS :    1, 0.46       2, 0.54
  4268 1605-11-45      11    45.00       2405.    
  4269 1630-17-87      17    87.00       2382.    
  4270 1630-22-79      22    79.00       2366.    
  4271 1630-42-355     42    355.0       2277.    
  4272 1630-48-356     48    356.0       2242.    
  4273 1630-66-59      66    59.00       2198.    
  4274 1630-71-33      71    33.00       2210.    
  4275 1630-71-365     71    365.0       2211.    
  4276 1629-42-355     42    355.0       2274.    
  4277 1629-48-356     48    356.0       2242.    
  4278 1629-56-9       56    9.000       2225.    
  4279 1629-61-21      61    21.00       2198.    
  4280 1629-66-59      66    59.00       2199.    
  4281 1629-71-33      71    33.00       2211.    
  4282 1629-71-365     71    365.0       2213.    
  4283 1683-22-79      22    79.00       2379.    
     MULTIPLE LAYERS AND PROPORTIONS :    1, 0.71       2, 0.29
  4284 1683-26-349     26    349.0       2360.    
     MULTIPLE LAYERS AND PROPORTIONS :    1, 0.71       2, 0.29
  4285 1683-42-355     42    355.0       2286.    
     MULTIPLE LAYERS AND PROPORTIONS :    1, 0.71       2, 0.29
  4286 1683-48-355     48    355.0       2256.    
  4287 1683-56-27      56    27.00       2237.    
  4288 1683-60-349     60    349.0       2213.    
  4289 1683-66-54      66    54.00       2213.    
     MULTIPLE LAYERS AND PROPORTIONS :    1, 0.71       2, 0.29
  4290 1679-42-355     42    355.0       2286.    
  4291 1679-48-355     48    355.0       2251.    
  4292 1679-56-27      56    27.00       2238.    
  4293 1679-61-11      61    11.00       2213.    
  4294 1680-66-54      66    54.00       2212.    
  4295 1654-42-355     42    355.0       2280.    
  4296 1654-48-355     48    355.0       2244.    
  4297 1654-56-27      56    27.00       2225.    
  4298 1654-61-14      61    14.00       2198.    
  4299 1654-66-54      66    54.00       2206.    
  4300 1654-71-64      71    64.00       2218.    
  4301 1654-71-365     71    365.0       2221.    
  4302 1660-42-355     42    355.0       2279.    
  4303 1660-48-355     48    355.0       2243.    
  4304 1660-56-27      56    27.00       2224.    
  4305 1660-60-349     60    349.0       2198.    
  4306 1660-66-54      66    54.00       2205.    
  4307 1660-71-64      71    64.00       2218.    
  4308 1660-71-365     71    365.0       2221.    
  4309 1554-22-81      22    81.00       2379.    
     MULTIPLE LAYERS AND PROPORTIONS :    1, 0.91       2, 0.09
  4310 1554-27-15      27    15.00       2357.    
     MULTIPLE LAYERS AND PROPORTIONS :    1, 0.91       2, 0.09
  4311 1554-32-60      32    60.00       2340.    
     MULTIPLE LAYERS AND PROPORTIONS :    1, 0.91       2, 0.09
  4312 1554-56-26      56    26.00       2254.    
  4313 1554-61-12      61    12.00       2230.    
  4314 1554-66-59      66    59.00       2227.    
  4315 1554-71-54      71    54.00       2233.    
  4316 1554-71-365     71    365.0       2236.    
  4317 1504-22-60      22    60.00       2375.    
     MULTIPLE LAYERS AND PROPORTIONS :    1, 0.89       2, 0.11
  4318 1548-7-158       7    158.0       2406.    
  4319 1548-11-82      11    82.00       2402.    
  4320 1548-17-87      17    87.00       2380.    
  4321 1548-22-81      22    81.00       2365.    
  4322 1548-26-278     26    278.0       2343.    
  4323 1550-48-365     48    365.0       2255.    
     MULTIPLE LAYERS AND PROPORTIONS :    1, 0.39       2, 0.61
  4324 1550-56-6       56    6.000       2225.    
     MULTIPLE LAYERS AND PROPORTIONS :    1, 0.39       2, 0.61
  4325 1550-61-27      61    27.00       2193.    
     MULTIPLE LAYERS AND PROPORTIONS :    1, 0.39       2, 0.61
  4326 1550-66-28      66    28.00       2206.    
     MULTIPLE LAYERS AND PROPORTIONS :    1, 0.39       2, 0.61
  4327 1550-71-13      71    13.00       2215.    
     MULTIPLE LAYERS AND PROPORTIONS :    1, 0.39       2, 0.61
  4328 1550-71-365     71    365.0       2219.    
     MULTIPLE LAYERS AND PROPORTIONS :    1, 0.39       2, 0.61
  4329 1559-66-46      66    46.00       2194.    
  4330 1559-71-365     71    365.0       2207.    
  4331 1569-32-60      32    60.00       2330.    
  4332 1569-37-89      37    89.00       2305.    
  4333 1569-42-356     42    356.0       2281.    
  4334 1569-48-355     48    355.0       2252.    
  4335 1569-56-26      56    26.00       2222.    
  4336 1569-61-24      61    24.00       2180.    
  4337 1569-66-28      66    28.00       2199.    
  4338 1569-71-365     71    365.0       2215.    
  4339 1540-17-86      17    86.00       2377.    
  4340 1540-22-81      22    81.00       2362.    
  4341 1540-26-279     26    279.0       2342.    
  4342 1540-42-355     42    355.0       2284.    
  4343 1540-48-355     48    355.0       2257.    
  4344 1540-56-26      56    26.00       2232.    
  4345 1540-60-350     60    350.0       2200.    
  4346 1540-66-28      66    28.00       2205.    
  4347 1540-71-365     71    365.0       2218.    
  4348 1526-17-87      17    87.00       2378.    
  4349 1526-22-81      22    81.00       2363.    
  4350 1526-26-349     26    349.0       2384.    
  4351 1526-32-60      32    60.00       2329.    
  4352 1526-42-356     42    356.0       2289.    
  4353 1526-48-355     48    355.0       2269.    
  4354 1526-56-26      56    26.00       2243.    
  4355 1526-60-350     60    350.0       2211.    
  4356 1526-65-355     65    355.0       2210.    
  4357 1526-71-362     70    362.0       2219.    
  4358 1518-42-357     42    357.0       2288.    
     MULTIPLE LAYERS AND PROPORTIONS :    1, 0.24       2, 0.76
  4359 1517-71-53      71    53.00       2226.    
  4360 1517-71-365     71    365.0       2228.    
  4361 1564-56-26      56    26.00       2224.    
  4362 1564-71-365     71    365.0       2211.    
  4363 1552-12-59      12    59.00       2387.    
  4364 1552-17-85      17    85.00       2369.    
  4365 1552-22-80      22    80.00       2348.    
  4366 1557-42-356     42    356.0       2279.    
  4367 1557-48-355     48    355.0       2255.    
  4368 1557-56-20      56    20.00       2229.    
  4369 1557-71-13      71    13.00       2210.    
  4370 1557-71-365     71    365.0       2214.    
  4371 1570-2-98        2    98.00       2390.    
  4372 1631-12-96      12    96.00       2393.    
  4373 1631-17-87      17    87.00       2379.    
  4374 1631-22-80      22    80.00       2357.    
  4375 1631-26-279     26    279.0       2340.    
  4376 1631-42-355     42    355.0       2287.    
  4377 1631-48-355     48    355.0       2262.    
  4378 1631-56-26      56    26.00       2241.    
  4379 1631-66-32      66    32.00       2212.    
  4380 1631-71-33      71    33.00       2220.    
  4381 1631-71-365     71    365.0       2226.    
  4382 1519-42-355     42    355.0       2288.    
     MULTIPLE LAYERS AND PROPORTIONS :    1, 0.11       2, 0.89
  4383 1519-48-355     48    355.0       2265.    
     MULTIPLE LAYERS AND PROPORTIONS :    1, 0.11       2, 0.89
  4384 1519-56-20      56    20.00       2242.    
     MULTIPLE LAYERS AND PROPORTIONS :    1, 0.11       2, 0.89
  4385 1519-61-18      61    18.00       2212.    
     MULTIPLE LAYERS AND PROPORTIONS :    1, 0.11       2, 0.89
  4386 1519-66-32      66    32.00       2212.    
     MULTIPLE LAYERS AND PROPORTIONS :    1, 0.11       2, 0.89
  4387 1519-71-33      71    33.00       2222.    
     MULTIPLE LAYERS AND PROPORTIONS :    1, 0.11       2, 0.89
  4388 1519-71-365     71    365.0       2225.    
     MULTIPLE LAYERS AND PROPORTIONS :    1, 0.11       2, 0.89
  4389 1542-56-20      56    20.00       2230.    
  4390 1542-60-350     60    350.0       2189.    
  4391 1542-66-54      66    54.00       2201.    
  4392 1542-71-13      71    13.00       2211.    
  4393 1542-71-365     71    365.0       2215.    
  4394 1520-17-87      17    87.00       2376.    
  4395 1520-22-80      22    80.00       2358.    
  4396 1520-32-60      32    60.00       2328.    
  4397 1520-42-356     42    356.0       2288.    
  4398 1597-56-27      56    27.00       2221.    
  4399 1597-66-26      66    26.00       2193.    
  4400 1597-71-28      71    28.00       2205.    
  4401 1597-71-365     71    365.0       2208.    
  4402 1581-11-256     11    256.0       2383.    
  4403 1583-56-27      56    27.00       2226.    
  4404 1583-66-26      66    26.00       2197.    
  4405 1583-71-28      71    28.00       2207.    
  4406 1583-71-29      71    29.00       2209.    
  4407 1583-71-365     71    365.0       2210.    
  4408 1583-71-365     71    365.0       2210.    
  4409 1565-71-28      71    28.00       2215.    
  4410 1565-71-365     71    365.0       2217.    
  4411 1595-11-257     11    257.0       2369.    
  4412 1533-8-65        8    65.00       2373.    
  4413 1533-12-96      12    96.00       2366.    
  4414 1533-17-82      17    82.00       2354.    
  4415 1533-22-80      22    80.00       2339.    
  4416 1533-27-15      27    15.00       2324.    
  4417 1533-42-363     42    363.0       2280.    
  4418 1537-42-363     42    363.0       2277.    
  4419 1537-48-357     48    357.0       2262.    
  4420 1541-66-55      66    55.00       2208.    
  4421 1541-71-76      71    76.00       2217.    
  4422 1541-71-365     71    365.0       2216.    
  4423 1510-42-357     42    357.0       2288.    
  4424 1510-48-337     48    337.0       2274.    
  4425 1510-56-18      56    18.00       2247.    
  4426 1510-60-333     60    333.0       2215.    
  4427 1510-65-299     65    299.0       2215.    
  4428 1510-71-11      71    11.00       2226.    
  4429 1510-71-365     71    365.0       2232.    
  4430 1511-31-351     31    351.0       2321.    
  4431 1511-37-27      37    27.00       2298.    
  4432 1511-42-357     42    357.0       2285.    
  4433 1511-48-337     48    337.0       2270.    
  4434 1511-56-18      56    18.00       2243.    
  4435 1511-60-333     60    333.0       2210.    
  4436 1511-65-299     65    299.0       2210.    
  4437 1511-71-12      71    12.00       2223.    
  4438 1511-71-365     71    365.0       2231.    
  4439 1512-31-351     31    351.0       2313.    
  4440 1512-42-357     42    357.0       2281.    
  4441 1512-48-337     48    337.0       2266.    
  4442 1512-56-18      56    18.00       2244.    
  4443 1513-31-351     31    351.0       2313.    
  4444 1513-42-357     42    357.0       2279.    
  4445 1513-48-337     48    337.0       2262.    
  4446 1513-56-18      56    18.00       2241.    
  4447 1513-60-333     60    333.0       2223.    
  4448 1513-65-299     65    299.0       2216.    
  4449 1513-71-11      71    11.00       2225.    
  4450 1513-71-365     71    365.0       2229.    
  4451 1505-66-26      66    26.00       2212.    
  4452 1505-71-53      71    53.00       2224.    
  4453 1505-71-365     71    365.0       2227.    
  4454 1546-8-65        8    65.00       2365.    
  4455 1546-10-31      10    31.00       2359.    
  4456 1546-17-82      17    82.00       2340.    
  4457 1546-22-81      22    81.00       2325.    
  4458 1551-42-363     42    363.0       2269.    
     MULTIPLE LAYERS AND PROPORTIONS :    1, 0.51       2, 0.49
  4459 1551-48-357     48    357.0       2247.    
     MULTIPLE LAYERS AND PROPORTIONS :    1, 0.51       2, 0.49
  4460 1551-56-13      56    13.00       2223.    
     MULTIPLE LAYERS AND PROPORTIONS :    1, 0.51       2, 0.49
  4461 1551-61-31      61    31.00       2211.    
     MULTIPLE LAYERS AND PROPORTIONS :    1, 0.51       2, 0.49
  4462 1551-66-19      66    19.00       2205.    
     MULTIPLE LAYERS AND PROPORTIONS :    1, 0.51       2, 0.49
  4463 1551-71-32      71    32.00       2214.    
     MULTIPLE LAYERS AND PROPORTIONS :    1, 0.51       2, 0.49
  4464 1551-71-365     71    365.0       2217.    
     MULTIPLE LAYERS AND PROPORTIONS :    1, 0.51       2, 0.49
  4465 1525-10-154     10    154.0       2356.    
  4466 1525-22-83      22    83.00       2327.    
  4467 1525-32-60      32    60.00       2295.    
  4468 1525-42-363     42    363.0       2270.    
  4469 1525-56-25      56    25.00       2233.    
  4470 1525-60-351     60    351.0       2221.    
  4471 1525-66-1       66   1.0000       2214.    
  4472 1525-71-32      71    32.00       2220.    
  4473 1525-71-365     71    365.0       2222.    
  4474 1813-17-82      17    82.00       2346.    
  4475 1813-22-82      22    82.00       2331.    
  4476 1813-26-294     26    294.0       2315.    
  4477 1813-42-363     42    363.0       2274.    
  4478 1813-48-357     48    357.0       2254.    
  4479 1813-56-25      56    25.00       2232.    
  4480 1813-60-351     60    351.0       2216.    
  4481 1813-66-19      66    19.00       2211.    
  4482 1813-71-32      71    32.00       2219.    
  4483 1813-71-365     71    365.0       2221.    
  4484 1538-10-154     10    154.0       2366.    
     MULTIPLE LAYERS AND PROPORTIONS :    1, 0.14       2, 0.86
  4485 1538-17-86      17    86.00       2350.    
     MULTIPLE LAYERS AND PROPORTIONS :    1, 0.14       2, 0.86
  4486 1538-22-82      22    82.00       2333.    
     MULTIPLE LAYERS AND PROPORTIONS :    1, 0.14       2, 0.86
  4487 1538-42-363     42    363.0       2276.    
     MULTIPLE LAYERS AND PROPORTIONS :    1, 0.14       2, 0.86
  4488 1567-12-59      12    59.00       2335.    
     MULTIPLE LAYERS AND PROPORTIONS :    1, 0.71       2, 0.29
  4489 1567-17-85      17    85.00       2326.    
     MULTIPLE LAYERS AND PROPORTIONS :    1, 0.71       2, 0.29
  4490 1567-22-53      22    53.00       2311.    
     MULTIPLE LAYERS AND PROPORTIONS :    1, 0.71       2, 0.29
  4491 1567-27-15      27    15.00       2301.    
     MULTIPLE LAYERS AND PROPORTIONS :    1, 0.71       2, 0.29
  4492 1567-32-65      32    65.00       2290.    
     MULTIPLE LAYERS AND PROPORTIONS :    1, 0.71       2, 0.29
  4493 1578-42-362     42    362.0       2258.    
  4494 1579-34-182     34    182.0       2273.    
     MULTIPLE LAYERS AND PROPORTIONS :    1, 0.20       2, 0.80
  4495 1466-12-96      12    96.00       2355.    
  4496 1466-17-89      17    89.00       2342.    
  4497 1466-32-60      32    60.00       2285.    
  4498 1466-37-89      37    89.00       2283.    
  4499 1466-42-363     42    363.0       2278.    
  4500 1466-48-357     48    357.0       2273.    
  4501 1466-56-25      56    25.00       2260.    
  4502 1466-71-365     71    365.0       2262.    
  4503 1467-17-89      17    89.00       2339.    
  4504 1467-22-60      22    60.00       2341.    
  4505 1467-48-357     48    357.0       2284.    
  4506 1467-56-25      56    25.00       2271.    
  4507 1467-60-351     60    351.0       2249.    
  4508 1467-65-355     65    355.0       2244.    
  4509 1467-71-52      71    52.00       2248.    
  4510 1467-71-365     71    365.0       2251.    
  4511 1470-17-82      17    82.00       2358.    
  4512 1470-22-82      22    82.00       2341.    
  4513 1470-42-362     42    362.0       2281.    
  4514 1470-48-357     48    357.0       2261.    
  4515 1470-56-18      56    18.00       2245.    
  4516 1470-60-308     60    308.0       2248.    
  4517 1470-71-365     71    365.0       2236.    
  4518 1500-27-60      27    60.00       2313.    
     MULTIPLE LAYERS AND PROPORTIONS :    1, 0.32       2, 0.68
  4519 1500-42-362     42    362.0       2271.    
     MULTIPLE LAYERS AND PROPORTIONS :    1, 0.32       2, 0.68
  4520 1500-48-357     48    357.0       2256.    
     MULTIPLE LAYERS AND PROPORTIONS :    1, 0.32       2, 0.68
  4521 1500-56-25      56    25.00       2238.    
     MULTIPLE LAYERS AND PROPORTIONS :    1, 0.32       2, 0.68
  4522 1500-60-351     60    351.0       2226.    
     MULTIPLE LAYERS AND PROPORTIONS :    1, 0.32       2, 0.68
  4523 1459-11-68      11    68.00       2372.    
  4524 1459-17-82      17    82.00       2352.    
  4525 1459-22-60      22    60.00       2338.    
  4526 1459-26-293     26    293.0       2313.    
  4527 1459-42-363     42    363.0       2281.    
  4528 1459-48-357     48    357.0       2271.    
  4529 1459-56-25      56    25.00       2257.    
  4530 1459-60-351     60    351.0       2245.    
  4531 1459-66-12      66    12.00       2239.    
  4532 1459-71-365     71    365.0       2240.    
  4533 1455-12-96      12    96.00       2383.    
  4534 1455-17-82      17    82.00       2366.    
  4535 1443-12-96      12    96.00       2386.    
  4536 1443-17-82      17    82.00       2368.    
  4537 1443-32-60      32    60.00       2324.    
  4538 1443-38-60      38    60.00       2317.    
  4539 1443-42-364     42    364.0       2288.    
  4540 1443-48-341     48    341.0       2308.    
  4541 1486-56-56      56    56.00       2255.    
  4542 1486-71-365     71    365.0       2233.    
  4543 1485-71-365     71    365.0       2233.    
  4544 1475-11-305     11    305.0       2358.    
  4545 1465-17-82      17    82.00       2367.    
  4546 1465-22-82      22    82.00       2351.    
  4547 1465-42-356     42    356.0       2285.    
  4548 1465-48-355     48    355.0       2273.    
  4549 1465-56-25      56    25.00       2256.    
  4550 1465-60-351     60    351.0       2237.    
  4551 1465-66-1       66   1.0000       2234.    
  4552 1465-71-365     71    365.0       2240.    
  4553 1440-17-82      17    82.00       2373.    
     MULTIPLE LAYERS AND PROPORTIONS :    1, 0.14       2, 0.86
  4554 1440-22-80      22    80.00       2355.    
     MULTIPLE LAYERS AND PROPORTIONS :    1, 0.14       2, 0.86
  4555 1440-32-60      32    60.00       2326.    
     MULTIPLE LAYERS AND PROPORTIONS :    1, 0.14       2, 0.86
  4556 1440-37-90      37    90.00       2301.    
     MULTIPLE LAYERS AND PROPORTIONS :    1, 0.14       2, 0.86
  4557 1440-48-355     48    355.0       2276.    
     MULTIPLE LAYERS AND PROPORTIONS :    1, 0.14       2, 0.86
  4558 1441-11-283     11    283.0       2409.    
     MULTIPLE LAYERS AND PROPORTIONS :    1, 0.79       2, 0.21
  4559 1474-17-87      17    87.00       2384.    
  4560 1474-22-80      22    80.00       2367.    
  4561 1474-61-31      61    31.00       2235.    
  4562 1474-71-68      71    68.00       2238.    
  4563 1474-71-365     71    365.0       2238.    
  4564 1478-48-355     48    355.0       2282.    
     MULTIPLE LAYERS AND PROPORTIONS :    1, 0.27       2, 0.73
  4565 1478-56-26      56    26.00       2259.    
     MULTIPLE LAYERS AND PROPORTIONS :    1, 0.27       2, 0.73
  4566 1478-60-350     60    350.0       2238.    
     MULTIPLE LAYERS AND PROPORTIONS :    1, 0.27       2, 0.73
  4567 1478-65-355     65    355.0       2224.    
     MULTIPLE LAYERS AND PROPORTIONS :    1, 0.27       2, 0.73
  4568 1478-71-68      71    68.00       2237.    
     MULTIPLE LAYERS AND PROPORTIONS :    1, 0.27       2, 0.73
  4569 1478-71-365     71    365.0       2238.    
     MULTIPLE LAYERS AND PROPORTIONS :    1, 0.27       2, 0.73
  4570 1453-17-85      17    85.00       2382.    
  4571 1453-22-80      22    80.00       2362.    
  4572 1453-42-356     42    356.0       2296.    
  4573 1453-48-355     48    355.0       2280.    
  4574 1453-66-49      66    49.00       2244.    
  4575 1453-71-68      71    68.00       2245.    
  4576 1453-71-365     71    365.0       2244.    
  4577 1454-42-356     42    356.0       2295.    
     MULTIPLE LAYERS AND PROPORTIONS :    1, 0.11       2, 0.89
  4578 1454-48-355     48    355.0       2279.    
     MULTIPLE LAYERS AND PROPORTIONS :    1, 0.11       2, 0.89
  4579 1454-55-362     55    362.0       2264.    
     MULTIPLE LAYERS AND PROPORTIONS :    1, 0.11       2, 0.89
  4580 1454-61-31      61    31.00       2239.    
     MULTIPLE LAYERS AND PROPORTIONS :    1, 0.11       2, 0.89
  4581 1454-66-49      66    49.00       2238.    
     MULTIPLE LAYERS AND PROPORTIONS :    1, 0.11       2, 0.89
  4582 1454-71-68      71    68.00       2244.    
     MULTIPLE LAYERS AND PROPORTIONS :    1, 0.11       2, 0.89
  4583 1454-71-365     71    365.0       2244.    
     MULTIPLE LAYERS AND PROPORTIONS :    1, 0.11       2, 0.89
  4584 1447-66-49      66    49.00       2234.    
  4585 1447-71-68      71    68.00       2240.    
  4586 1447-71-365     71    365.0       2241.    
  4587 1444-42-356     42    356.0       2300.    
     MULTIPLE LAYERS AND PROPORTIONS :    1, 0.65       2, 0.35
  4588 1444-48-355     48    355.0       2280.    
     MULTIPLE LAYERS AND PROPORTIONS :    1, 0.65       2, 0.35
  4589 1444-55-362     55    362.0       2266.    
     MULTIPLE LAYERS AND PROPORTIONS :    1, 0.65       2, 0.35
  4590 1444-61-6       61    6.000       2244.    
     MULTIPLE LAYERS AND PROPORTIONS :    1, 0.65       2, 0.35
  4591 1444-66-49      66    49.00       2245.    
     MULTIPLE LAYERS AND PROPORTIONS :    1, 0.65       2, 0.35
  4592 1444-71-68      71    68.00       2248.    
     MULTIPLE LAYERS AND PROPORTIONS :    1, 0.65       2, 0.35
  4593 1444-71-365     71    365.0       2249.    
     MULTIPLE LAYERS AND PROPORTIONS :    1, 0.65       2, 0.35
  4594 1499-11-360     11    360.0       2412.    
     MULTIPLE LAYERS AND PROPORTIONS :    1, 0.37       2, 0.63
  4595 1499-17-85      17    85.00       2392.    
     MULTIPLE LAYERS AND PROPORTIONS :    1, 0.37       2, 0.63
  4596 1499-22-81      22    81.00       2373.    
     MULTIPLE LAYERS AND PROPORTIONS :    1, 0.37       2, 0.63
  4597 1499-48-355     48    355.0       2278.    
     MULTIPLE LAYERS AND PROPORTIONS :    1, 0.37       2, 0.63
  4598 1499-56-20      56    20.00       2259.    
     MULTIPLE LAYERS AND PROPORTIONS :    1, 0.37       2, 0.63
  4599 1499-60-350     60    350.0       2237.    
     MULTIPLE LAYERS AND PROPORTIONS :    1, 0.37       2, 0.63
  4600 1499-66-14      66    14.00       2227.    
     MULTIPLE LAYERS AND PROPORTIONS :    1, 0.37       2, 0.63
  4601 1499-71-64      71    64.00       2230.    
     MULTIPLE LAYERS AND PROPORTIONS :    1, 0.37       2, 0.63
  4602 1499-71-365     71    365.0       2231.    
     MULTIPLE LAYERS AND PROPORTIONS :    1, 0.37       2, 0.63
  4603 1490-66-45      66    45.00       2231.    
  4604 1490-71-64      71    64.00       2237.    
  4605 1490-71-365     71    365.0       2236.    
  4606 1436-71-64      71    64.00       2247.    
  4607 1436-71-365     71    365.0       2247.    
  4608 1488-17-87      17    87.00       2396.    
  4609 1488-22-81      22    81.00       2374.    
  4610 1488-48-350     48    350.0       2281.    
  4611 1488-56-20      56    20.00       2281.    
  4612 1502-17-85      17    85.00       2394.    
     MULTIPLE LAYERS AND PROPORTIONS :    1, 0.40       2, 0.60
  4613 1502-22-81      22    81.00       2374.    
     MULTIPLE LAYERS AND PROPORTIONS :    1, 0.40       2, 0.60
  4614 1502-48-365     48    365.0       2275.    
  4615 1502-56-20      56    20.00       2259.    
  4616 1502-60-350     60    350.0       2239.    
  4617 1502-66-46      66    46.00       2231.    
     MULTIPLE LAYERS AND PROPORTIONS :    1, 0.40       2, 0.60
  4618 1502-71-54      71    54.00       2236.    
     MULTIPLE LAYERS AND PROPORTIONS :    1, 0.40       2, 0.60
  4619 1502-71-365     71    365.0       2237.    
     MULTIPLE LAYERS AND PROPORTIONS :    1, 0.40       2, 0.60
  4620 1477-8-69        8    69.00       2422.    
  4621 1477-12-96      12    96.00       2416.    
  4622 1477-17-86      17    86.00       2396.    
  4623 1477-22-81      22    81.00       2375.    
  4624 1477-32-60      32    60.00       2339.    
  4625 1458-17-85      17    85.00       2403.    
  4626 1458-22-81      22    81.00       2374.    
  4627 1458-42-355     42    355.0       2307.    
  4628 1458-48-350     48    350.0       2294.    
  4629 1458-56-20      56    20.00       2293.    
  4630 1458-60-350     60    350.0       2267.    
  4631 1458-71-64      71    64.00       2254.    
  4632 1458-71-365     71    365.0       2254.    
  4633 1460-66-1       66   1.0000       2248.    
  4634 1460-71-64      71    64.00       2252.    
  4635 1460-71-365     71    365.0       2252.    
  4636 1429-17-85      17    85.00       2413.    
     MULTIPLE LAYERS AND PROPORTIONS :    1, 0.19       2, 0.81
  4637 1429-22-81      22    81.00       2380.    
     MULTIPLE LAYERS AND PROPORTIONS :    1, 0.19       2, 0.81
  4638 1429-42-355     42    355.0       2327.    
     MULTIPLE LAYERS AND PROPORTIONS :    1, 0.19       2, 0.81
  4639 1429-48-350     48    350.0       2319.    
     MULTIPLE LAYERS AND PROPORTIONS :    1, 0.19       2, 0.81
  4640 1429-56-20      56    20.00       2319.    
     MULTIPLE LAYERS AND PROPORTIONS :    1, 0.19       2, 0.81
  4641 1429-60-350     60    350.0       2295.    
     MULTIPLE LAYERS AND PROPORTIONS :    1, 0.19       2, 0.81
  4642 1429-66-53      66    53.00       2283.    
     MULTIPLE LAYERS AND PROPORTIONS :    1, 0.19       2, 0.81
  4643 1429-71-13      71    13.00       2281.    
     MULTIPLE LAYERS AND PROPORTIONS :    1, 0.19       2, 0.81
  4644 1429-71-365     71    365.0       2281.    
     MULTIPLE LAYERS AND PROPORTIONS :    1, 0.19       2, 0.81
  4645 1431-17-85      17    85.00       2421.    
  4646 1431-22-82      22    82.00       2385.    
  4647 1431-27-63      27    63.00       2379.    
  4648 1431-32-60      32    60.00       2360.    
  4649 1431-42-355     42    355.0       2337.    
  4650 1431-48-350     48    350.0       2329.    
  4651 1431-56-20      56    20.00       2334.    
  4652 1431-60-350     60    350.0       2307.    
  4653 1431-71-13      71    13.00       2294.    
  4654 1431-71-365     71    365.0       2293.    
  4655 1392-16-363     16    363.0       2419.    
     MULTIPLE LAYERS AND PROPORTIONS :    1, 0.57       2, 0.43
  4656 1397-22-80      22    80.00       2377.    
     MULTIPLE LAYERS AND PROPORTIONS :    1, 0.60       2, 0.40
  4657 1397-42-355     42    355.0       2303.    
     MULTIPLE LAYERS AND PROPORTIONS :    1, 0.60       2, 0.40
  4658 1397-48-355     48    355.0       2297.    
     MULTIPLE LAYERS AND PROPORTIONS :    1, 0.60       2, 0.40
  4659 1397-55-361     55    361.0       2287.    
     MULTIPLE LAYERS AND PROPORTIONS :    1, 0.60       2, 0.40
  4660 1397-61-14      61    14.00       2271.    
     MULTIPLE LAYERS AND PROPORTIONS :    1, 0.60       2, 0.40
  4661 1397-66-12      66    12.00       2261.    
     MULTIPLE LAYERS AND PROPORTIONS :    1, 0.60       2, 0.40
  4662 1397-71-68      71    68.00       2263.    
     MULTIPLE LAYERS AND PROPORTIONS :    1, 0.60       2, 0.40
  4663 1397-71-365     71    365.0       2262.    
     MULTIPLE LAYERS AND PROPORTIONS :    1, 0.60       2, 0.40
  4664 1426-12-95      12    95.00       2393.    
     MULTIPLE LAYERS AND PROPORTIONS :    1, 0.10       2, 0.90
  4665 1426-17-82      17    82.00       2374.    
     MULTIPLE LAYERS AND PROPORTIONS :    1, 0.10       2, 0.90
  4666 1426-22-80      22    80.00       2353.    
     MULTIPLE LAYERS AND PROPORTIONS :    1, 0.10       2, 0.90
  4667 1426-26-288     26    288.0       2333.    
     MULTIPLE LAYERS AND PROPORTIONS :    1, 0.10       2, 0.90
  4668 1426-42-356     42    356.0       2289.    
     MULTIPLE LAYERS AND PROPORTIONS :    1, 0.10       2, 0.90
  4669 1426-48-355     48    355.0       2280.    
     MULTIPLE LAYERS AND PROPORTIONS :    1, 0.10       2, 0.90
  4670 1426-55-350     55    350.0       2272.    
     MULTIPLE LAYERS AND PROPORTIONS :    1, 0.10       2, 0.90
  4671 1426-61-13      61    13.00       2254.    
     MULTIPLE LAYERS AND PROPORTIONS :    1, 0.10       2, 0.90
  4672 1426-66-12      66    12.00       2248.    
     MULTIPLE LAYERS AND PROPORTIONS :    1, 0.10       2, 0.90
  4673 1426-71-54      71    54.00       2251.    
     MULTIPLE LAYERS AND PROPORTIONS :    1, 0.10       2, 0.90
  4674 1426-71-365     71    365.0       2251.    
     MULTIPLE LAYERS AND PROPORTIONS :    1, 0.10       2, 0.90
  4675 1411-56-25      56    25.00       2327.    
  4676 1411-61-42      61    42.00       2256.    
  4677 1411-66-12      66    12.00       2261.    
  4678 1411-71-54      71    54.00       2264.    
  4679 1411-71-365     71    365.0       2265.    
  4680 1409-61-42      61    42.00       2252.    
     MULTIPLE LAYERS AND PROPORTIONS :    1, 0.97       2, 0.03
  4681 1409-66-12      66    12.00       2255.    
     MULTIPLE LAYERS AND PROPORTIONS :    1, 0.97       2, 0.03
  4682 1409-71-54      71    54.00       2259.    
     MULTIPLE LAYERS AND PROPORTIONS :    1, 0.97       2, 0.03
  4683 1409-71-365     71    365.0       2259.    
     MULTIPLE LAYERS AND PROPORTIONS :    1, 0.97       2, 0.03
  4684 1390-71-68      71    68.00       2273.    
     MULTIPLE LAYERS AND PROPORTIONS :    1, 0.42       2, 0.58
  4685 1390-71-362     71    362.0       2274.    
     MULTIPLE LAYERS AND PROPORTIONS :    1, 0.42       2, 0.58
  4686 1416-71-1       71   1.0000       2345.    
     MULTIPLE LAYERS AND PROPORTIONS :    1, 0.72       2, 0.28
  4687 1372-66-5       66    5.000       2260.    
  4688 1372-71-68      71    68.00       2266.    
  4689 1372-71-362     71    362.0       2267.    
  4690 1312-12-265     12    265.0       2428.    
  4691 1332-71-13      71    13.00       2268.    
  4692 1332-71-362     71    362.0       2269.    
  4693 1359-32-69      32    69.00       2369.    
     MULTIPLE LAYERS AND PROPORTIONS :    1, 0.54       2, 0.46
  4694 1359-37-95      37    95.00       2357.    
     MULTIPLE LAYERS AND PROPORTIONS :    1, 0.54       2, 0.46
  4695 1359-42-356     42    356.0       2342.    
     MULTIPLE LAYERS AND PROPORTIONS :    1, 0.54       2, 0.46
  4696 1359-48-334     48    334.0       2340.    
     MULTIPLE LAYERS AND PROPORTIONS :    1, 0.54       2, 0.46
  4697 1359-56-19      56    19.00       2336.    
     MULTIPLE LAYERS AND PROPORTIONS :    1, 0.54       2, 0.46
  4698 1359-60-321     60    321.0       2328.    
     MULTIPLE LAYERS AND PROPORTIONS :    1, 0.54       2, 0.46
  4699 1359-65-298     65    298.0       2316.    
     MULTIPLE LAYERS AND PROPORTIONS :    1, 0.54       2, 0.46
  4700 1359-71-14      71    14.00       2311.    
     MULTIPLE LAYERS AND PROPORTIONS :    1, 0.54       2, 0.46
  4701 1359-71-365     71    365.0       2310.    
     MULTIPLE LAYERS AND PROPORTIONS :    1, 0.54       2, 0.46
  4702 1333-7-28        7    28.00       2444.    
     MULTIPLE LAYERS AND PROPORTIONS :    1, 0.51       2, 0.49
  4703 1333-12-95      12    95.00       2441.    
     MULTIPLE LAYERS AND PROPORTIONS :    1, 0.51       2, 0.49
  4704 1333-17-87      17    87.00       2429.    
     MULTIPLE LAYERS AND PROPORTIONS :    1, 0.51       2, 0.49
  4705 1333-32-69      32    69.00       2376.    
     MULTIPLE LAYERS AND PROPORTIONS :    1, 0.51       2, 0.49
  4706 1333-56-19      56    19.00       2338.    
  4707 1333-61-60      61    60.00       2326.    
  4708 1333-66-25      66    25.00       2318.    
  4709 1355-32-69      32    69.00       2393.    
  4710 1355-37-95      37    95.00       2380.    
  4711 1355-42-356     42    356.0       2364.    
  4712 1355-48-344     48    344.0       2361.    
  4713 1355-56-19      56    19.00       2358.    
  4714 1355-61-60      61    60.00       2344.    
  4715 1355-66-25      66    25.00       2340.    
  4716 1355-71-40      71    40.00       2336.    
  4717 1295-32-69      32    69.00       2390.    
  4718 1295-37-95      37    95.00       2371.    
  4719 1295-42-355     42    355.0       2349.    
  4720 1295-56-19      56    19.00       2349.    
  4721 1295-61-60      61    60.00       2339.    
  4722 1289-48-344     48    344.0       2368.    
  4723 1289-56-20      56    20.00       2364.    
  4724 1289-61-60      61    60.00       2350.    
  4725 1289-66-25      66    25.00       2344.    
  4726 1289-71-40      71    40.00       2343.    
  4727 1856-33-79      33    79.00       2578.    
  4728 1866-42-356     42    356.0       2576.    
  4729 1866-48-348     48    348.0       2579.    
  4730 1866-55-347     55    347.0       2585.    
  4731 1866-60-356     60    356.0       2566.    
  4732 1866-66-5       66    5.000       2562.    
     MULTIPLE LAYERS AND PROPORTIONS :    1, 0.49       2, 0.51
  4733 1866-71-39      71    39.00       2575.    
     MULTIPLE LAYERS AND PROPORTIONS :    1, 0.49       2, 0.51
  4734 1866-71-41      71    41.00       2576.    
     MULTIPLE LAYERS AND PROPORTIONS :    1, 0.49       2, 0.51
  4735 1866-71-365     71    365.0       2573.    
     MULTIPLE LAYERS AND PROPORTIONS :    1, 0.49       2, 0.51
  4736 1859-55-347     55    347.0       2584.    
  4737 1859-66-33      66    33.00       2569.    
     MULTIPLE LAYERS AND PROPORTIONS :    1, 0.48       2, 0.52
  4738 1860-42-356     42    356.0       2576.    
  4739 1860-48-348     48    348.0       2583.    
  4740 1860-56-5       56    5.000       2587.    
  4741 1860-66-5       66    5.000       2561.    
  4742 1860-71-365     71    365.0       2572.    
  4743 1867-66-5       66    5.000       2564.    
  4744 1867-71-365     71    365.0       2574.    
  4745 1855-66-5       66    5.000       2562.    
  4746 1855-71-365     71    365.0       2571.    
  4747 1876-42-362     42    362.0       2512.    
  4748 1876-48-338     48    338.0       2505.    
  4749 1876-56-16      56    16.00       2507.    
  4750 1750-56-16      56    16.00       2540.    
  4751 1750-61-53      61    53.00       2526.    
  4752 1750-66-27      66    27.00       2459.    
  4753 1730-56-16      56    16.00       2519.    
  4754 1730-61-53      61    53.00       2488.    
  4755 1730-66-31      66    31.00       2447.    
  4756 1835-22-32      22    32.00       2566.    
  4757 1835-27-12      27    12.00       2578.    
  4758 1831-1-365       1    365.0       2572.    
 Observation within a steady-state time step has been moved to the end of the time step.
  4759 1801-22-32      22    32.00       2571.    
  4760 1801-27-12      27    12.00       2578.    
  4761 1739-56-16      56    16.00       2543.    
  4762 1739-61-53      61    53.00       2512.    
  4763 1739-66-27      66    27.00       2470.    
  4764 1725-66-12      66    12.00       2427.    
  4765 1725-71-365     71    365.0       2444.    
  4766 1761-27-17      27    17.00       2560.    
  4767 1761-32-60      32    60.00       2546.    
  4768 1761-42-355     42    355.0       2538.    
  4769 1761-48-350     48    350.0       2547.    
  4770 1761-56-6       56    6.000       2565.    
  4771 1761-66-1       66   1.0000       2523.    
  4772 1761-71-35      71    35.00       2531.    
  4773 1761-71-365     71    365.0       2527.    
  4774 1774-48-365     48    365.0       2512.    
     MULTIPLE LAYERS AND PROPORTIONS :    2, 0.68       3, 0.32
  4775 1774-56-5       56    5.000       2517.    
     MULTIPLE LAYERS AND PROPORTIONS :    2, 0.68       3, 0.32
  4776 1774-66-1       66   1.0000       2441.    
     MULTIPLE LAYERS AND PROPORTIONS :    2, 0.68       3, 0.32
  4777 1774-71-35      71    35.00       2455.    
     MULTIPLE LAYERS AND PROPORTIONS :    2, 0.68       3, 0.32
  4778 1774-71-365     71    365.0       2470.    
     MULTIPLE LAYERS AND PROPORTIONS :    2, 0.68       3, 0.32
  4779 1740-1-365       1    365.0       2556.    
 Observation within a steady-state time step has been moved to the end of the time step.
  4780 1740-16-356     16    356.0       2564.    
  4781 1853-42-357     42    357.0       2500.    
     MULTIPLE LAYERS AND PROPORTIONS :    1, 0.75       2, 0.25
  4782 1850-48-338     48    338.0       2494.    
  4783 1850-56-16      56    16.00       2506.    
  4784 1850-66-31      66    31.00       2432.    
  4785 1850-71-40      71    40.00       2432.    
  4786 1895-16-362     16    362.0       2491.    
  4787 1895-22-32      22    32.00       2496.    
  4788 1895-27-12      27    12.00       2495.    
  4789 1737-43-32      43    32.00       2452.    
  4790 1737-48-355     48    355.0       2449.    
  4791 1737-56-5       56    5.000       2450.    
  4792 1737-61-26      61    26.00       2416.    
  4793 1737-66-28      66    28.00       2390.    
  4794 1737-71-35      71    35.00       2403.    
  4795 1737-71-365     71    365.0       2410.    
  4796 1802-1-276       1    276.0       2517.    
 Observation within a steady-state time step has been moved to the end of the time step.
  4797 1802-4-104       4    104.0       2524.    
  4798 1746-42-355     42    355.0       2492.    
  4799 1746-48-355     48    355.0       2485.    
  4800 1746-56-11      56    11.00       2478.    
  4801 1746-61-33      61    33.00       2448.    
  4802 1746-66-28      66    28.00       2423.    
  4803 1746-71-33      71    33.00       2429.    
  4804 1746-71-344     71    344.0       2436.    
  4805 1940-42-355     42    355.0       2460.    
     MULTIPLE LAYERS AND PROPORTIONS :    1, 0.24       2, 0.76
  4806 1940-48-355     48    355.0       2452.    
     MULTIPLE LAYERS AND PROPORTIONS :    1, 0.24       2, 0.76
  4807 1940-56-5       56    5.000       2458.    
     MULTIPLE LAYERS AND PROPORTIONS :    1, 0.24       2, 0.76
  4808 1940-66-1       66   1.0000       2399.    
     MULTIPLE LAYERS AND PROPORTIONS :    1, 0.24       2, 0.76
  4809 1940-71-35      71    35.00       2414.    
     MULTIPLE LAYERS AND PROPORTIONS :    1, 0.24       2, 0.76
  4810 1940-71-365     71    365.0       2425.    
     MULTIPLE LAYERS AND PROPORTIONS :    1, 0.24       2, 0.76
  4811 1925-48-355     48    355.0       2454.    
  4812 1925-56-5       56    5.000       2452.    
  4813 1925-61-26      61    26.00       2430.    
  4814 1925-66-32      66    32.00       2401.    
  4815 1925-71-35      71    35.00       2415.    
  4816 1925-71-365     71    365.0       2425.    
  4817 1733-2-93        2    93.00       2454.    
  4818 1732-12-114     12    114.0       2492.    
  4819 1732-16-362     16    362.0       2487.    
  4820 1732-27-90      27    90.00       2488.    
  4821 1732-32-60      32    60.00       2477.    
  4822 1732-42-357     42    357.0       2451.    
  4823 1732-48-341     48    341.0       2442.    
  4824 1732-56-16      56    16.00       2442.    
  4825 1809-48-355     48    355.0       2456.    
  4826 1809-55-346     55    346.0       2445.    
  4827 1809-60-364     60    364.0       2416.    
  4828 1809-66-28      66    28.00       2392.    
  4829 1809-71-39      71    39.00       2404.    
  4830 1809-71-365     71    365.0       2410.    
  4831 1731-56-5       56    5.000       2444.    
  4832 1731-60-351     60    351.0       2411.    
  4833 1731-65-364     65    364.0       2388.    
  4834 1731-71-35      71    35.00       2402.    
  4835 1731-71-365     71    365.0       2409.    
  4836 1915-56-13      56    13.00       2454.    
  4837 1915-60-351     60    351.0       2434.    
  4838 1915-66-32      66    32.00       2406.    
  4839 1915-71-55      71    55.00       2421.    
  4840 1915-71-365     71    365.0       2430.    
  4841 1869-1-365       1    365.0       2488.    
 Observation within a steady-state time step has been moved to the end of the time step.
  4842 1884-1-52        1    52.00       2488.    
 Observation within a steady-state time step has been moved to the end of the time step.
  4843 1910-66-32      66    32.00       2249.    
  4844 1910-71-365     71    365.0       2261.    
  4845 1887-66-32      66    32.00       2240.    
  4846 1887-71-365     71    365.0       2251.    
  4847 1854-66-48      66    48.00       2237.    
  4848 1885-7-322       7    322.0       2430.    
  4849 1885-12-116     12    116.0       2429.    
  4850 1790-66-48      66    48.00       2237.    
  4851 1836-66-48      66    48.00       2246.    
  4852 1783-66-48      66    48.00       2233.    
  4853 1846-48-355     48    355.0       2447.    
  4854 1846-55-327     55    327.0       2443.    
  4855 1846-61-14      61    14.00       2423.    
  4856 1846-66-48      66    48.00       2393.    
  4857 1846-71-365     71    365.0       2419.    
  4858 1845-48-355     48    355.0       2280.    
  4859 1845-55-360     55    360.0       2260.    
  4860 1845-61-11      61    11.00       2236.    
  4861 1845-66-32      66    32.00       2236.    
  4862 1845-71-365     71    365.0       2248.    
  4863 1916-56-5       56    5.000       2280.    
     MULTIPLE LAYERS AND PROPORTIONS :    1, 0.21       2, 0.79
  4864 1916-66-32      66    32.00       2252.    
     MULTIPLE LAYERS AND PROPORTIONS :    1, 0.21       2, 0.79
  4865 1916-71-365     71    365.0       2266.    
     MULTIPLE LAYERS AND PROPORTIONS :    1, 0.21       2, 0.79
  4866 1911-56-5       56    5.000       2277.    
  4867 1911-66-32      66    32.00       2249.    
  4868 1911-71-365     71    365.0       2265.    
  4869 1897-12-114     12    114.0       2444.    
  4870 1897-27-10      27   10.000       2398.    
  4871 1893-66-32      66    32.00       2242.    
  4872 1893-71-365     71    365.0       2255.    
  4873 1917-48-355     48    355.0       2276.    
  4874 1917-66-32      66    32.00       2225.    
  4875 1917-71-344     71    344.0       2242.    
  4876 1672-66-45      66    45.00       2225.    
  4877 1647-12-332     12    332.0       2378.    
  4878 1647-16-355     16    355.0       2370.    
  4879 1659-22-81      22    81.00       2389.    
     MULTIPLE LAYERS AND PROPORTIONS :    1, 0.55       2, 0.45
  4880 1659-42-356     42    356.0       2300.    
     MULTIPLE LAYERS AND PROPORTIONS :    1, 0.55       2, 0.45
  4881 1659-48-355     48    355.0       2266.    
  4882 1659-56-6       56    6.000       2251.    
  4883 1659-60-354     60    354.0       2231.    
  4884 1659-66-45      66    45.00       2228.    
     MULTIPLE LAYERS AND PROPORTIONS :    1, 0.55       2, 0.45
  4885 1659-71-365     71    365.0       2239.    
     MULTIPLE LAYERS AND PROPORTIONS :    1, 0.55       2, 0.45
  4886 1682-48-355     48    355.0       2254.    
  4887 1707-42-355     42    355.0       2288.    
  4888 1707-48-355     48    355.0       2254.    
  4889 1707-56-26      56    26.00       2242.    
  4890 1707-60-354     60    354.0       2220.    
  4891 1707-66-45      66    45.00       2218.    
  4892 1707-71-365     71    365.0       2230.    
  4893 1712-42-355     42    355.0       2287.    
  4894 1712-48-355     48    355.0       2252.    
  4895 1712-56-5       56    5.000       2241.    
  4896 1712-61-14      61    14.00       2219.    
  4897 1712-65-355     65    355.0       2216.    
  4898 1712-71-67      71    67.00       2227.    
  4899 1712-71-365     71    365.0       2230.    
  4900 1671-22-79      22    79.00       2383.    
     MULTIPLE LAYERS AND PROPORTIONS :    1, 0.72       2, 0.28
  4901 1671-42-355     42    355.0       2291.    
  4902 1671-48-355     48    355.0       2257.    
  4903 1671-56-20      56    20.00       2242.    
  4904 1627-22-82      22    82.00       2391.    
  4905 1627-32-90      32    90.00       2353.    
  4906 1627-37-90      37    90.00       2326.    
  4907 1627-42-356     42    356.0       2305.    
  4908 1627-48-350     48    350.0       2268.    
  4909 1627-55-360     55    360.0       2254.    
  4910 1627-61-12      61    12.00       2234.    
  4911 1627-66-1       66   1.0000       2232.    
  4912 1627-71-53      71    53.00       2240.    
  4913 1627-71-365     71    365.0       2243.    
  4914 1607-1-276       1    276.0       2426.    
 Observation within a steady-state time step has been moved to the end of the time step.
     MULTIPLE LAYERS AND PROPORTIONS :    1, 0.88       2, 0.12
  4915 1607-6-269       6    269.0       2424.    
     MULTIPLE LAYERS AND PROPORTIONS :    1, 0.88       2, 0.12
  4916 1607-11-269     11    269.0       2418.    
     MULTIPLE LAYERS AND PROPORTIONS :    1, 0.88       2, 0.12
  4917 1598-66-45      66    45.00       2231.    
  4918 1643-27-90      27    90.00       2380.    
     MULTIPLE LAYERS AND PROPORTIONS :    1, 0.19       2, 0.81
  4919 1632-22-82      22    82.00       2403.    
  4920 1632-27-15      27    15.00       2382.    
  4921 1632-32-77      32    77.00       2361.    
  4922 1632-42-356     42    356.0       2316.    
  4923 1632-48-355     48    355.0       2282.    
  4924 1632-56-6       56    6.000       2266.    
  4925 1632-60-354     60    354.0       2245.    
  4926 1632-66-48      66    48.00       2242.    
  4927 1632-71-53      71    53.00       2250.    
  4928 1632-71-365     71    365.0       2253.    
  4929 1677-32-64      32    64.00       2477.    
  4930 1677-42-355     42    355.0       2451.    
  4931 1677-48-351     48    351.0       2439.    
  4932 1677-56-5       56    5.000       2443.    
  4933 1677-61-26      61    26.00       2407.    
  4934 1677-66-39      66    39.00       2386.    
  4935 1677-71-35      71    35.00       2403.    
  4936 1677-71-365     71    365.0       2408.    
  4937 1646-27-90      27    90.00       2489.    
  4938 1646-32-64      32    64.00       2482.    
  4939 1646-42-355     42    355.0       2446.    
  4940 1646-48-350     48    350.0       2434.    
  4941 1646-56-5       56    5.000       2437.    
  4942 1646-61-26      61    26.00       2402.    
  4943 1646-66-39      66    39.00       2382.    
  4944 1646-71-39      71    39.00       2400.    
  4945 1646-71-365     71    365.0       2406.    
  4946 1602-42-355     42    355.0       2336.    
  4947 1602-48-350     48    350.0       2264.    
  4948 1602-71-35      71    35.00       2252.    
  4949 1602-71-365     71    365.0       2254.    
  4950 1601-42-355     42    355.0       2335.    
     MULTIPLE LAYERS AND PROPORTIONS :    2, 0.90       3, 0.10
  4951 1601-48-350     48    350.0       2261.    
     MULTIPLE LAYERS AND PROPORTIONS :    2, 0.90       3, 0.10
  4952 1601-55-348     55    348.0       2268.    
     MULTIPLE LAYERS AND PROPORTIONS :    2, 0.90       3, 0.10
  4953 1601-61-14      61    14.00       2211.    
     MULTIPLE LAYERS AND PROPORTIONS :    2, 0.90       3, 0.10
  4954 1601-66-19      66    19.00       2208.    
     MULTIPLE LAYERS AND PROPORTIONS :    2, 0.90       3, 0.10
  4955 1601-71-35      71    35.00       2254.    
     MULTIPLE LAYERS AND PROPORTIONS :    2, 0.90       3, 0.10
  4956 1601-71-365     71    365.0       2255.    
  4957 1674-10-253     10    253.0       2532.    
  4958 1676-42-355     42    355.0       2484.    
  4959 1676-48-350     48    350.0       2487.    
  4960 1676-55-349     55    349.0       2473.    
  4961 1676-61-27      61    27.00       2442.    
  4962 1676-66-19      66    19.00       2415.    
  4963 1676-71-35      71    35.00       2419.    
  4964 1676-71-365     71    365.0       2429.    
  4965 1645-32-77      32    77.00       2486.    
  4966 1645-42-355     42    355.0       2454.    
  4967 1645-55-360     55    360.0       2447.    
  4968 1645-60-356     60    356.0       2411.    
  4969 1645-66-1       66   1.0000       2384.    
  4970 1645-71-35      71    35.00       2400.    
  4971 1645-71-365     71    365.0       2406.    
  4972 1604-32-77      32    77.00       2471.    
  4973 1604-42-355     42    355.0       2439.    
  4974 1604-48-350     48    350.0       2422.    
  4975 1604-55-360     55    360.0       2425.    
  4976 1604-60-362     60    362.0       2397.    
  4977 1604-71-48      71    48.00       2392.    
  4978 1604-71-365     71    365.0       2295.    
  4979 1640-55-360     55    360.0       2486.    
     MULTIPLE LAYERS AND PROPORTIONS :    2, 0.86       3, 0.14
  4980 1640-60-356     60    356.0       2455.    
     MULTIPLE LAYERS AND PROPORTIONS :    2, 0.86       3, 0.14
  4981 1640-66-19      66    19.00       2415.    
     MULTIPLE LAYERS AND PROPORTIONS :    2, 0.86       3, 0.14
  4982 1640-71-22      71    22.00       2426.    
     MULTIPLE LAYERS AND PROPORTIONS :    2, 0.86       3, 0.14
  4983 1640-71-365     71    365.0       2433.    
     MULTIPLE LAYERS AND PROPORTIONS :    2, 0.86       3, 0.14
  4984 1720-66-5       66    5.000       2502.    
  4985 1720-71-22      71    22.00       2498.    
  4986 1720-71-365     71    365.0       2505.    
  4987 1706-33-318     33    318.0       2550.    
  4988 1669-7-32        7    32.00       2537.    
  4989 1669-12-106     12    106.0       2531.    
  4990 1669-32-68      32    68.00       2527.    
  4991 1669-38-60      38    60.00       2519.    
  4992 1669-42-354     42    354.0       2509.    
  4993 1622-32-68      32    68.00       2527.    
  4994 1622-38-60      38    60.00       2519.    
  4995 1622-42-354     42    354.0       2506.    
  4996 1622-48-341     48    341.0       2497.    
  4997 1622-56-17      56    17.00       2489.    
  4998 1622-61-54      61    54.00       2461.    
  4999 1622-66-32      66    32.00       2420.    
  5000 1556-61-27      61    27.00       2456.    
     MULTIPLE LAYERS AND PROPORTIONS :    2, 0.54       3, 0.46
  5001 1556-66-5       66    5.000       2432.    
     MULTIPLE LAYERS AND PROPORTIONS :    2, 0.54       3, 0.46
  5002 1556-71-22      71    22.00       2436.    
     MULTIPLE LAYERS AND PROPORTIONS :    2, 0.54       3, 0.46
  5003 1556-71-365     71    365.0       2439.    
     MULTIPLE LAYERS AND PROPORTIONS :    2, 0.54       3, 0.46
  5004 1553-7-336       7    336.0       2538.    
  5005 1553-12-106     12    106.0       2533.    
  5006 1553-42-354     42    354.0       2503.    
  5007 1553-48-341     48    341.0       2490.    
  5008 1568-33-234     33    234.0       2528.    
  5009 1568-48-341     48    341.0       2497.    
  5010 1594-71-22      71    22.00       2425.    
  5011 1594-71-365     71    365.0       2432.    
  5012 1563-32-68      32    68.00       2526.    
  5013 1563-37-48      37    48.00       2507.    
  5014 1563-42-355     42    355.0       2500.    
  5015 1563-48-348     48    348.0       2488.    
  5016 1563-56-6       56    6.000       2480.    
  5017 1553-15-99      15    99.00       2533.    
  5018 1522-42-355     42    355.0       2506.    
  5019 1522-48-348     48    348.0       2488.    
  5020 1527-55-354     55    354.0       2475.    
     MULTIPLE LAYERS AND PROPORTIONS :    2, 0.71       3, 0.29
  5021 1527-61-54      61    54.00       2451.    
     MULTIPLE LAYERS AND PROPORTIONS :    2, 0.71       3, 0.29
  5022 1527-66-32      66    32.00       2420.    
     MULTIPLE LAYERS AND PROPORTIONS :    2, 0.71       3, 0.29
  5023 1527-71-22      71    22.00       2426.    
     MULTIPLE LAYERS AND PROPORTIONS :    2, 0.71       3, 0.29
  5024 1527-71-365     71    365.0       2430.    
  5025 1589-42-355     42    355.0       2468.    
  5026 1589-48-350     48    350.0       2453.    
  5027 1589-55-360     55    360.0       2454.    
  5028 1589-61-14      61    14.00       2417.    
  5029 1589-66-32      66    32.00       2394.    
  5030 1589-71-22      71    22.00       2404.    
  5031 1589-71-365     71    365.0       2408.    
  5032 1586-32-68      32    68.00       2475.    
  5033 1586-48-356     48    356.0       2414.    
  5034 1586-56-6       56    6.000       2423.    
  5035 1586-60-356     60    356.0       2377.    
  5036 1586-66-1       66   1.0000       2371.    
  5037 1586-71-35      71    35.00       2390.    
  5038 1586-71-365     71    365.0       2393.    
  5039 1532-42-355     42    355.0       2430.    
  5040 1532-48-348     48    348.0       2407.    
  5041 1532-55-354     55    354.0       2420.    
  5042 1532-61-28      61    28.00       2365.    
  5043 1532-66-46      66    46.00       2371.    
  5044 1532-71-22      71    22.00       2384.    
  5045 1532-71-365     71    365.0       2386.    
  5046 1534-42-355     42    355.0       2432.    
  5047 1534-48-348     48    348.0       2408.    
  5048 1534-55-360     55    360.0       2413.    
  5049 1534-61-5       61    5.000       2374.    
  5050 1534-66-46      66    46.00       2373.    
  5051 1534-71-35      71    35.00       2386.    
  5052 1534-71-365     71    365.0       2388.    
  5053 1524-42-355     42    355.0       2467.    
  5054 1524-48-348     48    348.0       2449.    
  5055 1524-56-6       56    6.000       2450.    
  5056 1524-60-356     60    356.0       2418.    
  5057 1524-66-1       66   1.0000       2399.    
  5058 1524-71-48      71    48.00       2406.    
  5059 1524-71-365     71    365.0       2408.    
  5060 1561-21-340     21    340.0       2488.    
  5061 1561-32-64      32    64.00       2474.    
  5062 1561-42-355     42    355.0       2435.    
  5063 1561-48-350     48    350.0       2413.    
  5064 1561-55-360     55    360.0       2415.    
  5065 1561-61-26      61    26.00       2375.    
  5066 1561-66-46      66    46.00       2370.    
  5067 1561-71-39      71    39.00       2389.    
  5068 1561-71-365     71    365.0       2389.    
  5069 1571-2-94        2    94.00       2432.    
  5070 1572-48-356     48    356.0       2300.    
  5071 1572-56-6       56    6.000       2274.    
  5072 1572-61-26      61    26.00       2244.    
  5073 1572-66-12      66    12.00       2245.    
  5074 1572-71-48      71    48.00       2258.    
  5075 1572-71-365     71    365.0       2261.    
  5076 1549-21-319     21    319.0       2437.    
  5077 1549-56-6       56    6.000       2281.    
  5078 1549-60-356     60    356.0       2224.    
  5079 1549-65-350     65    350.0       2214.    
  5080 1549-71-67      71    67.00       2262.    
  5081 1549-71-365     71    365.0       2261.    
  5082 1547-27-62      27    62.00       2388.    
  5083 1521-42-355     42    355.0       2372.    
  5084 1521-48-350     48    350.0       2352.    
  5085 1521-55-360     55    360.0       2338.    
  5086 1521-60-356     60    356.0       2321.    
  5087 1521-66-46      66    46.00       2311.    
  5088 1521-71-48      71    48.00       2316.    
  5089 1521-71-365     71    365.0       2317.    
  5090 1573-48-356     48    356.0       2281.    
  5091 1573-55-360     55    360.0       2268.    
  5092 1573-60-357     60    357.0       2244.    
  5093 1573-66-54      66    54.00       2243.    
  5094 1573-71-19      71    19.00       2248.    
  5095 1573-71-365     71    365.0       2252.    
  5096 1545-32-77      32    77.00       2351.    
     MULTIPLE LAYERS AND PROPORTIONS :    1, 0.32       2, 0.68
  5097 1545-42-356     42    356.0       2319.    
  5098 1545-48-350     48    350.0       2289.    
  5099 1545-56-11      56    11.00       2270.    
  5100 1545-61-14      61    14.00       2247.    
  5101 1545-66-54      66    54.00       2248.    
  5102 1545-71-19      71    19.00       2254.    
  5103 1545-71-365     71    365.0       2257.    
  5104 1535-42-356     42    356.0       2320.    
  5105 1535-48-350     48    350.0       2292.    
  5106 1535-56-11      56    11.00       2272.    
  5107 1535-60-357     60    357.0       2251.    
  5108 1535-66-47      66    47.00       2250.    
  5109 1535-71-19      71    19.00       2256.    
  5110 1535-71-365     71    365.0       2259.    
  5111 1507-42-356     42    356.0       2326.    
  5112 1507-48-350     48    350.0       2302.    
  5113 1507-56-11      56    11.00       2271.    
  5114 1507-60-357     60    357.0       2251.    
  5115 1507-66-54      66    54.00       2262.    
  5116 1507-71-19      71    19.00       2264.    
  5117 1507-71-365     71    365.0       2267.    
  5118 1523-16-54      16    54.00       2421.    
     MULTIPLE LAYERS AND PROPORTIONS :    1, 0.70       2, 0.30
  5119 1575-22-81      22    81.00       2393.    
  5120 1575-32-77      32    77.00       2347.    
  5121 1575-42-356     42    356.0       2309.    
  5122 1575-48-350     48    350.0       2282.    
  5123 1575-55-343     55    343.0       2259.    
  5124 1575-61-11      61    11.00       2235.    
  5125 1575-71-365     71    365.0       2245.    
  5126 1577-22-81      22    81.00       2388.    
     MULTIPLE LAYERS AND PROPORTIONS :    1, 0.51       2, 0.49
  5127 1580-42-355     42    355.0       2298.    
  5128 1580-48-355     48    355.0       2264.    
  5129 1580-56-13      56    13.00       2247.    
  5130 1580-61-12      61    12.00       2227.    
  5131 1580-66-54      66    54.00       2229.    
  5132 1580-71-365     71    365.0       2239.    
  5133 1536-17-79      17    79.00       2407.    
  5134 1536-22-82      22    82.00       2382.    
  5135 1536-32-77      32    77.00       2338.    
  5136 1536-42-356     42    356.0       2301.    
  5137 1536-48-350     48    350.0       2273.    
  5138 1536-55-340     55    340.0       2255.    
  5139 1536-66-54      66    54.00       2231.    
  5140 1536-71-365     71    365.0       2239.    
  5141 1516-42-356     42    356.0       2308.    
  5142 1516-48-350     48    350.0       2286.    
  5143 1516-56-11      56    11.00       2261.    
  5144 1516-61-27      61    27.00       2234.    
  5145 1516-66-54      66    54.00       2242.    
  5146 1516-71-365     71    365.0       2249.    
  5147 1528-22-82      22    82.00       2382.    
  5148 1528-27-63      27    63.00       2368.    
  5149 1528-32-77      32    77.00       2344.    
  5150 1528-65-350     65    350.0       2242.    
  5151 1528-71-365     71    365.0       2251.    
  5152 1514-42-356     42    356.0       2309.    
  5153 1514-48-350     48    350.0       2287.    
  5154 1514-55-340     55    340.0       2267.    
  5155 1514-61-27      61    27.00       2237.    
  5156 1514-66-54      66    54.00       2245.    
  5157 1514-71-48      71    48.00       2248.    
  5158 1514-71-365     71    365.0       2252.    
  5159 1495-42-356     42    356.0       2327.    
  5160 1495-48-350     48    350.0       2304.    
  5161 1495-55-343     55    343.0       2283.    
  5162 1495-61-41      61    41.00       2259.    
  5163 1495-66-54      66    54.00       2265.    
  5164 1495-71-19      71    19.00       2266.    
  5165 1495-71-365     71    365.0       2269.    
  5166 1484-37-343     37    343.0       2324.    
  5167 1484-42-356     42    356.0       2322.    
  5168 1484-56-11      56    11.00       2270.    
  5169 1484-60-357     60    357.0       2250.    
  5170 1484-66-53      66    53.00       2257.    
  5171 1484-71-19      71    19.00       2258.    
  5172 1484-71-365     71    365.0       2265.    
  5173 1463-56-34      56    34.00       2297.    
  5174 1463-60-357     60    357.0       2276.    
  5175 1463-66-53      66    53.00       2277.    
  5176 1463-71-19      71    19.00       2276.    
  5177 1463-71-365     71    365.0       2278.    
  5178 1483-42-355     42    355.0       2409.    
  5179 1483-48-348     48    348.0       2395.    
  5180 1483-56-6       56    6.000       2382.    
  5181 1483-60-357     60    357.0       2365.    
  5182 1483-66-46      66    46.00       2356.    
  5183 1483-71-35      71    35.00       2356.    
  5184 1483-71-365     71    365.0       2356.    
  5185 1437-16-300     16    300.0       2470.    
     MULTIPLE LAYERS AND PROPORTIONS :    1, 0.61       2, 0.39
  5186 1437-22-32      22    32.00       2449.    
     MULTIPLE LAYERS AND PROPORTIONS :    1, 0.61       2, 0.39
  5187 1437-27-12      27    12.00       2454.    
     MULTIPLE LAYERS AND PROPORTIONS :    1, 0.61       2, 0.39
  5188 1438-42-362     42    362.0       2383.    
  5189 1438-56-20      56    20.00       2383.    
  5190 1438-61-53      61    53.00       2377.    
  5191 1438-66-32      66    32.00       2368.    
  5192 1438-71-40      71    40.00       2365.    
  5193 1445-27-76      27    76.00       2457.    
  5194 1445-32-55      32    55.00       2454.    
  5195 1445-42-356     42    356.0       2429.    
  5196 1445-48-348     48    348.0       2419.    
  5197 1445-55-360     55    360.0       2412.    
  5198 1445-60-357     60    357.0       2392.    
  5199 1445-66-1       66   1.0000       2384.    
  5200 1445-71-35      71    35.00       2382.    
  5201 1445-71-365     71    365.0       2381.    
  5202 1489-32-63      32    63.00       2477.    
  5203 1489-42-355     42    355.0       2437.    
  5204 1489-48-348     48    348.0       2415.    
  5205 1489-55-353     55    353.0       2411.    
  5206 1489-61-28      61    28.00       2385.    
  5207 1489-66-39      66    39.00       2384.    
  5208 1489-71-22      71    22.00       2387.    
  5209 1489-71-365     71    365.0       2387.    
  5210 1469-42-355     42    355.0       2488.    
  5211 1469-48-348     48    348.0       2462.    
  5212 1469-55-357     55    357.0       2471.    
  5213 1469-61-54      61    54.00       2436.    
  5214 1494-66-46      66    46.00       2436.    
  5215 1469-71-71      71    71.00       2437.    
  5216 1469-71-365     71    365.0       2438.    
  5217 1464-12-102     12    102.0       2539.    
  5218 1464-32-63      32    63.00       2521.    
  5219 1464-42-354     42    354.0       2480.    
  5220 1439-37-90      37    90.00       2487.    
  5221 1439-42-355     42    355.0       2474.    
  5222 1439-48-348     48    348.0       2451.    
  5223 1439-56-6       56    6.000       2453.    
  5224 1439-61-28      61    28.00       2422.    
  5225 1439-66-46      66    46.00       2429.    
  5226 1439-71-71      71    71.00       2424.    
  5227 1439-71-365     71    365.0       2426.    
  5228 1435-42-355     42    355.0       2478.    
  5229 1435-48-348     48    348.0       2456.    
  5230 1435-55-361     55    361.0       2461.    
  5231 1435-61-11      61    11.00       2440.    
  5232 1435-66-49      66    49.00       2431.    
  5233 1435-71-71      71    71.00       2426.    
  5234 1435-71-365     71    365.0       2429.    
  5235 1449-37-30      37    30.00       2521.    
     MULTIPLE LAYERS AND PROPORTIONS :    2, 0.16       3, 0.84
  5236 1414-7-138       7    138.0       2553.    
  5237 1414-32-64      32    64.00       2546.    
  5238 1414-38-60      38    60.00       2536.    
  5239 1414-42-354     42    354.0       2520.    
  5240 1379-71-356     71    356.0       2481.    
  5241 1425-2-94        2    94.00       2555.    
  5242 1425-16-359     16    359.0       2546.    
  5243 1425-22-32      22    32.00       2543.    
  5244 1425-27-12      27    12.00       2529.    
  5245 1382-42-355     42    355.0       2493.    
  5246 1382-48-348     48    348.0       2482.    
  5247 1382-56-6       56    6.000       2480.    
  5248 1382-61-54      61    54.00       2469.    
  5249 1382-66-46      66    46.00       2455.    
  5250 1382-71-22      71    22.00       2447.    
  5251 1382-71-365     71    365.0       2447.    
  5252 1413-32-64      32    64.00       2464.    
     MULTIPLE LAYERS AND PROPORTIONS :    1, 0.19       2, 0.81
  5253 1413-37-48      37    48.00       2451.    
     MULTIPLE LAYERS AND PROPORTIONS :    1, 0.19       2, 0.81
  5254 1413-56-6       56    6.000       2328.    
  5255 1413-61-26      61    26.00       2424.    
  5256 1413-66-53      66    53.00       2410.    
  5257 1413-71-48      71    48.00       2401.    
  5258 1395-32-64      32    64.00       2455.    
  5259 1395-42-355     42    355.0       2427.    
  5260 1395-48-348     48    348.0       2425.    
  5261 1395-56-6       56    6.000       2418.    
  5262 1395-61-26      61    26.00       2413.    
  5263 1395-66-1       66   1.0000       2404.    
  5264 1395-71-48      71    48.00       2398.    
  5265 1395-71-365     71    365.0       2396.    
  5266 1377-35-16      35    16.00       2432.    
  5267 1377-42-355     42    355.0       2423.    
  5268 1377-48-348     48    348.0       2420.    
  5269 1377-56-6       56    6.000       2414.    
  5270 1377-61-26      61    26.00       2408.    
  5271 1377-66-53      66    53.00       2401.    
  5272 1377-71-365     71    365.0       2394.    
  5273 1394-42-355     42    355.0       2458.    
  5274 1394-48-348     48    348.0       2453.    
  5275 1394-56-6       56    6.000       2446.    
  5276 1394-61-26      61    26.00       2438.    
  5277 1394-66-53      66    53.00       2427.    
  5278 1394-71-365     71    365.0       2418.    
  5279 1375-32-64      32    64.00       2490.    
  5280 1375-42-355     42    355.0       2474.    
  5281 1375-48-348     48    348.0       2471.    
  5282 1375-56-6       56    6.000       2464.    
  5283 1375-61-26      61    26.00       2457.    
  5284 1375-66-53      66    53.00       2446.    
  5285 1375-71-365     71    365.0       2437.    
  5286 1396-17-90      17    90.00       2452.    
  5287 1396-22-81      22    81.00       2425.    
  5288 1396-32-63      32    63.00       2415.    
  5289 1396-42-355     42    355.0       2389.    
  5290 1396-48-350     48    350.0       2386.    
  5291 1396-56-11      56    11.00       2379.    
  5292 1396-61-26      61    26.00       2365.    
  5293 1396-66-53      66    53.00       2360.    
  5294 1396-71-365     71    365.0       2352.    
  5295 1415-22-82      22    82.00       2419.    
  5296 1415-32-63      32    63.00       2387.    
  5297 1415-37-90      37    90.00       2374.    
  5298 1415-42-355     42    355.0       2364.    
  5299 1415-48-350     48    350.0       2358.    
  5300 1415-56-11      56    11.00       2354.    
  5301 1415-61-27      61    27.00       2338.    
  5302 1415-66-49      66    49.00       2329.    
  5303 1415-71-365     71    365.0       2322.    
  5304 1323-2-88        2    88.00       2488.    
  5305 1368-17-85      17    85.00       2462.    
     MULTIPLE LAYERS AND PROPORTIONS :    1, 0.15       2, 0.85
  5306 1368-22-81      22    81.00       2445.    
     MULTIPLE LAYERS AND PROPORTIONS :    1, 0.15       2, 0.85
  5307 1368-27-15      27    15.00       2436.    
  5308 1368-42-355     42    355.0       2399.    
  5309 1368-55-339     55    339.0       2388.    
  5310 1368-66-49      66    49.00       2374.    
     MULTIPLE LAYERS AND PROPORTIONS :    1, 0.15       2, 0.85
  5311 1368-71-365     71    365.0       2362.    
     MULTIPLE LAYERS AND PROPORTIONS :    1, 0.15       2, 0.85
  5312 1327-71-365     71    365.0       2447.    
  5313 1369-71-365     71    365.0       2420.    
  5314 1326-71-365     71    365.0       2429.    
  5315 1302-71-365     71    365.0       2442.    
  5316 1269-37-48      37    48.00       2533.    
  5317 1269-66-1       66   1.0000       2514.    
  5318 1269-71-365     71    365.0       2500.    
  5319 1277-66-59      66    59.00       2516.    
  5320 1330-48-345     48    345.0       2523.    
  5321 1330-56-17      56    17.00       2523.    
  5322 1322-2-94        2    94.00       2574.    
  5323 1331-48-345     48    345.0       2533.    
  5324 1331-56-17      56    17.00       2532.    
  5325 1331-61-54      61    54.00       2528.    
  5326 1331-66-32      66    32.00       2513.    
  5327 1331-71-40      71    40.00       2500.    
  5328 1276-12-99      12    99.00       2565.    
  5329 1276-17-90      17    90.00       2570.    
  5330 1771-33-65      33    65.00       2644.    
  5331 1880-42-356     42    356.0       2637.    
  5332 1880-48-335     48    335.0       2636.    
  5333 1880-61-60      61    60.00       2632.    
  5334 1880-66-25      66    25.00       2633.    
  5335 1735-34-152     34    152.0       2644.    
  5336 1840-16-362     16    362.0       2630.    
  5337 1794-3-36        3    36.00       2640.    
  5338 1794-16-362     16    362.0       2640.    
  5339 1794-27-12      27    12.00       2642.    
  5340 1794-71-39      71    39.00       2640.    
  5341 1794-71-365     71    365.0       2635.    
  5342 1796-16-362     16    362.0       2635.    
  5343 1806-55-348     55    348.0       2639.    
  5344 1806-60-364     60    364.0       2635.    
  5345 1806-66-1       66   1.0000       2629.    
  5346 1806-71-39      71    39.00       2638.    
  5347 1806-71-365     71    365.0       2635.    
  5348 1788-55-348     55    348.0       2637.    
  5349 1788-60-364     60    364.0       2632.    
  5350 1788-66-21      66    21.00       2631.    
  5351 1788-71-39      71    39.00       2631.    
  5352 1788-71-365     71    365.0       2633.    
  5353 1782-42-355     42    355.0       2633.    
  5354 1782-48-348     48    348.0       2631.    
  5355 1782-55-348     55    348.0       2635.    
  5356 1782-60-364     60    364.0       2631.    
  5357 1782-66-28      66    28.00       2628.    
  5358 1782-71-39      71    39.00       2628.    
  5359 1782-71-365     71    365.0       2631.    
  5360 1807-66-28      66    28.00       2633.    
  5361 1807-71-39      71    39.00       2634.    
  5362 1807-71-365     71    365.0       2634.    
  5363 1896-55-348     55    348.0       2594.    
  5364 1881-71-39      71    39.00       2601.    
  5365 1881-71-365     71    365.0       2589.    
  5366 1841-1-357       1    357.0       2580.    
 Observation within a steady-state time step has been moved to the end of the time step.
  5367 1773-34-91      34    91.00       2602.    
  5368 1821-48-302     48    302.0       2600.    
  5369 1798-16-362     16    362.0       2587.    
  5370 1797-48-348     48    348.0       2599.    
  5371 1797-55-348     55    348.0       2605.    
  5372 1797-60-354     60    354.0       2596.    
  5373 1797-66-28      66    28.00       2599.    
  5374 1797-71-39      71    39.00       2603.    
  5375 1797-71-365     71    365.0       2602.    
  5376 1789-42-356     42    356.0       2598.    
  5377 1789-55-348     55    348.0       2598.    
  5378 1789-60-364     60    364.0       2591.    
  5379 1789-66-28      66    28.00       2592.    
  5380 1789-71-39      71    39.00       2594.    
  5381 1789-71-365     71    365.0       2596.    
  5382 1780-66-28      66    28.00       2599.    
  5383 1780-71-39      71    39.00       2602.    
  5384 1780-71-365     71    365.0       2604.    
  5385 1799-42-356     42    356.0       2601.    
  5386 1799-48-335     48    335.0       2589.    
  5387 1736-34-152     34    152.0       2616.    
  5388 1613-42-355     42    355.0       2568.    
  5389 1613-48-348     48    348.0       2573.    
  5390 1613-55-348     55    348.0       2537.    
  5391 1613-61-41      61    41.00       2504.    
  5392 1613-66-12      66    12.00       2480.    
  5393 1613-71-22      71    22.00       2473.    
  5394 1613-71-365     71    365.0       2471.    
  5395 1606-55-348     55    348.0       2541.    
  5396 1606-61-41      61    41.00       2508.    
  5397 1606-66-12      66    12.00       2483.    
  5398 1606-71-22      71    22.00       2477.    
  5399 1606-71-365     71    365.0       2475.    
  5400 1620-2-90        2    90.00       2690.    
  5401 1620-12-324     12    324.0       2672.    
  5402 1620-16-362     16    362.0       2671.    
  5403 1705-48-335     48    335.0       2651.    
  5404 1705-56-16      56    16.00       2668.    
  5405 1705-61-60      61    60.00       2643.    
  5406 1705-66-25      66    25.00       2663.    
  5407 1530-48-335     48    335.0       2610.    
  5408 1530-56-16      56    16.00       2698.    
  5409 1530-61-60      61    60.00       2732.    
  5410 1434-37-27      37    27.00       2699.    
  5411 1434-42-356     42    356.0       2704.    
  5412 1434-56-17      56    17.00       2711.    
  5413 1434-60-321     60    321.0       2712.    
  5414 1434-65-298     65    298.0       2716.    
  5415 1434-71-365     71    365.0       2715.    
  5416 1384-48-335     48    335.0       2782.    
  5417 1344-48-348     48    348.0       2732.    
  5418 1344-55-348     55    348.0       2741.    
  5419 1344-61-41      61    41.00       2745.    
  5420 1344-66-5       66    5.000       2740.    
  5421 1344-71-356     71    356.0       2734.    
  5422 1354-2-93        2    93.00       2721.    
  5423 1354-7-52        7    52.00       2719.    
  5424 1354-12-102     12    102.0       2718.    
  5425 1354-17-71      17    71.00       2715.    
  5426 1354-22-32      22    32.00       2708.    
  5427 1354-32-90      32    90.00       2708.    
  5428 1354-38-60      38    60.00       2700.    
  5429 1358-32-90      32    90.00       2708.    
  5430 1358-48-336     48    336.0       2704.    
  5431 846-17-5        17    5.000       2368.    
  5432 846-22-33       22    33.00       2362.    
  5433 846-48-348      48    348.0       2367.    
  5434 846-61-25       61    25.00       2372.    
  5435 846-65-362      65    362.0       2372.    
  5436 846-71-365      71    365.0       2376.    
  5437 829-48-348      48    348.0       2368.    
  5438 829-55-353      55    353.0       2372.    
  5439 829-61-35       61    35.00       2375.    
  5440 829-65-362      65    362.0       2373.    
  5441 829-71-365      71    365.0       2379.    
  5442 839-12-121      12    121.0       2371.    
     MULTIPLE LAYERS AND PROPORTIONS :    2, 0.10       3, 0.90
  5443 839-71-365      71    365.0       2370.    
     MULTIPLE LAYERS AND PROPORTIONS :    2, 0.10       3, 0.90
  5444 817-1-220        1    220.0       2378.    
 Observation within a steady-state time step has been moved to the end of the time step.
  5445 817-6-331        6    331.0       2379.    
  5446 817-12-8        12    8.000       2379.    
  5447 813-32-87       32    87.00       2359.    
  5448 813-37-33       37    33.00       2360.    
  5449 813-42-350      42    350.0       2369.    
  5450 813-48-348      48    348.0       2377.    
  5451 813-56-17       56    17.00       2381.    
  5452 813-60-323      60    323.0       2381.    
  5453 813-65-301      65    301.0       2379.    
  5454 813-71-365      71    365.0       2386.    
  5455 818-17-5        17    5.000       2377.    
  5456 820-1-108        1    108.0       2362.    
 Observation within a steady-state time step has been moved to the end of the time step.
  5457 812-17-5        17    5.000       2369.    
     MULTIPLE LAYERS AND PROPORTIONS :    2, 0.08       3, 0.92
  5458 812-36-157      36    157.0       2336.    
     MULTIPLE LAYERS AND PROPORTIONS :    2, 0.08       3, 0.92
  5459 812-56-17       56    17.00       2373.    
     MULTIPLE LAYERS AND PROPORTIONS :    2, 0.08       3, 0.92
  5460 812-61-61       61    61.00       2364.    
     MULTIPLE LAYERS AND PROPORTIONS :    2, 0.08       3, 0.92
  5461 812-66-19       66    19.00       2373.    
     MULTIPLE LAYERS AND PROPORTIONS :    2, 0.08       3, 0.92
  5462 811-56-19       56    19.00       2372.    
  5463 811-66-20       66    20.00       2372.    
  5464 796-65-362      65    362.0       2378.    
  5465 796-71-365      71    365.0       2379.    
  5466 833-8-18         8    18.00       2360.    
     MULTIPLE LAYERS AND PROPORTIONS :    2, 0.17       3, 0.83
  5467 822-1-63         1    63.00       2365.    
 Observation within a steady-state time step has been moved to the end of the time step.
  5468 830-1-365        1    365.0       2364.    
 Observation within a steady-state time step has been moved to the end of the time step.
  5469 821-56-17       56    17.00       2359.    
  5470 821-61-61       61    61.00       2360.    
  5471 845-1-73         1    73.00       2315.    
 Observation within a steady-state time step has been moved to the end of the time step.
  5472 845-7-2          7    2.000       2316.    
  5473 845-11-272      11    272.0       2315.    
  5474 845-16-318      16    318.0       2306.    
  5475 845-22-33       22    33.00       2308.    
  5476 845-31-351      31    351.0       2303.    
  5477 845-36-62       36    62.00       2300.    
  5478 845-42-350      42    350.0       2299.    
  5479 845-48-348      48    348.0       2301.    
  5480 845-56-19       56    19.00       2310.    
  5481 845-60-323      60    323.0       2310.    
  5482 845-65-301      65    301.0       2309.    
  5483 845-71-13       71    13.00       2316.    
  5484 1183-16-315     16    315.0       2059.    
     MULTIPLE LAYERS AND PROPORTIONS :    2, 0.37       3, 0.63
  5485 1183-26-354     26    354.0       2042.    
     MULTIPLE LAYERS AND PROPORTIONS :    2, 0.37       3, 0.63
  5486 1183-31-362     31    362.0       2037.    
     MULTIPLE LAYERS AND PROPORTIONS :    2, 0.37       3, 0.63
  5487 1183-36-356     36    356.0       2032.    
     MULTIPLE LAYERS AND PROPORTIONS :    2, 0.37       3, 0.63
  5488 1183-42-350     42    350.0       2023.    
     MULTIPLE LAYERS AND PROPORTIONS :    2, 0.37       3, 0.63
  5489 1183-48-348     48    348.0       2015.    
     MULTIPLE LAYERS AND PROPORTIONS :    2, 0.37       3, 0.63
  5490 1183-66-25      66    25.00       1980.    
     MULTIPLE LAYERS AND PROPORTIONS :    2, 0.37       3, 0.63
  5491 1183-71-365     71    365.0       2002.    
     MULTIPLE LAYERS AND PROPORTIONS :    2, 0.37       3, 0.63
  5492 1190-56-23      56    23.00       2001.    
     MULTIPLE LAYERS AND PROPORTIONS :    2, 0.40       3, 0.60
  5493 1190-61-54      61    54.00       1992.    
     MULTIPLE LAYERS AND PROPORTIONS :    2, 0.40       3, 0.60
  5494 1190-66-25      66    25.00       1979.    
     MULTIPLE LAYERS AND PROPORTIONS :    2, 0.40       3, 0.60
  5495 1186-3-344       1    108.0       2064.    
 Observation within a steady-state time step has been moved to the end of the time step.
  5496 1186-5-69        5    69.00       2064.    
  5497 1186-17-6       17    6.000       2057.    
  5498 1185-10-213     10    213.0       2065.    
  5499 1178-38-335     38    335.0       2020.    
  5500 1178-42-349     42    349.0       2004.    
  5501 1178-48-349     48    349.0       1996.    
  5502 1178-55-353     55    353.0       1980.    
  5503 1178-61-21      61    21.00       1956.    
  5504 1178-66-34      66    34.00       1939.    
  5505 1178-71-365     71    365.0       1990.    
  5506 1182-66-25      66    25.00       1954.    
  5507 1132-12-4       12    4.000       2069.    
  5508 1134-1-73        1    73.00       2069.    
 Observation within a steady-state time step has been moved to the end of the time step.
  5509 1148-17-12      17    12.00       2046.    
     MULTIPLE LAYERS AND PROPORTIONS :    2, 0.28       3, 0.72
  5510 1148-21-356     21    356.0       2038.    
     MULTIPLE LAYERS AND PROPORTIONS :    2, 0.28       3, 0.72
  5511 1148-27-27      27    27.00       2033.    
     MULTIPLE LAYERS AND PROPORTIONS :    2, 0.28       3, 0.72
  5512 1148-31-348     31    348.0       2027.    
     MULTIPLE LAYERS AND PROPORTIONS :    2, 0.28       3, 0.72
  5513 1148-37-23      37    23.00       2022.    
     MULTIPLE LAYERS AND PROPORTIONS :    2, 0.28       3, 0.72
  5514 1148-42-349     42    349.0       2011.    
     MULTIPLE LAYERS AND PROPORTIONS :    2, 0.28       3, 0.72
  5515 1148-48-348     48    348.0       2000.    
     MULTIPLE LAYERS AND PROPORTIONS :    2, 0.28       3, 0.72
  5516 1148-55-353     55    353.0       1979.    
     MULTIPLE LAYERS AND PROPORTIONS :    2, 0.28       3, 0.72
  5517 1148-61-34      61    34.00       1951.    
     MULTIPLE LAYERS AND PROPORTIONS :    2, 0.28       3, 0.72
  5518 1148-66-6       66    6.000       1935.    
     MULTIPLE LAYERS AND PROPORTIONS :    2, 0.28       3, 0.72
  5519 1148-71-365     71    365.0       1952.    
     MULTIPLE LAYERS AND PROPORTIONS :    2, 0.28       3, 0.72
  5520 1177-35-321     35    321.0       2025.    
  5521 1177-42-349     42    349.0       2007.    
  5522 1177-48-348     48    348.0       1997.    
  5523 1177-55-353     55    353.0       1979.    
  5524 1177-61-21      61    21.00       1949.    
  5525 1177-66-34      66    34.00       1937.    
  5526 1177-71-50      71    50.00       1949.    
  5527 1105-12-4       12    4.000       2060.    
  5528 1105-16-333     16    333.0       2053.    
  5529 1105-21-356     21    356.0       2044.    
  5530 1106-42-349     42    349.0       2018.    
  5531 1106-55-353     55    353.0       1984.    
  5532 1106-61-13      61    13.00       1958.    
  5533 1106-66-6       66    6.000       1939.    
  5534 1106-71-365     71    365.0       1953.    
  5535 1102-66-6       66    6.000       1941.    
  5536 1102-71-365     71    365.0       1950.    
  5537 1120-3-152       3    152.0       2054.    
  5538 1089-42-349     42    349.0       2026.    
     MULTIPLE LAYERS AND PROPORTIONS :    2, 0.01       3, 0.99
  5539 1089-48-349     48    349.0       2010.    
     MULTIPLE LAYERS AND PROPORTIONS :    2, 0.01       3, 0.99
  5540 1089-55-353     55    353.0       1994.    
     MULTIPLE LAYERS AND PROPORTIONS :    2, 0.01       3, 0.99
  5541 1089-61-34      61    34.00       1975.    
     MULTIPLE LAYERS AND PROPORTIONS :    2, 0.01       3, 0.99
  5542 1089-66-6       66    6.000       1960.    
     MULTIPLE LAYERS AND PROPORTIONS :    2, 0.01       3, 0.99
  5543 1089-71-365     71    365.0       1971.    
     MULTIPLE LAYERS AND PROPORTIONS :    2, 0.01       3, 0.99
  5544 1093-66-6       66    6.000       1959.    
  5545 1093-71-365     71    365.0       1971.    
  5546 1087-48-349     48    349.0       1998.    
     MULTIPLE LAYERS AND PROPORTIONS :    2, 0.02       3, 0.98
  5547 1087-61-24      61    24.00       1992.    
     MULTIPLE LAYERS AND PROPORTIONS :    2, 0.02       3, 0.98
  5548 1087-71-70      71    70.00       1979.    
     MULTIPLE LAYERS AND PROPORTIONS :    2, 0.02       3, 0.98
  5549 1097-15-1       15   1.0000       2056.    
  5550 996-26-315      26    315.0       2108.    
  5551 996-48-349      48    349.0       2065.    
  5552 996-55-353      55    353.0       2055.    
  5553 996-61-11       61    11.00       2037.    
  5554 996-66-6        66    6.000       2034.    
  5555 996-71-365      71    365.0       2036.    
  5556 995-39-335      39    335.0       2084.    
     MULTIPLE LAYERS AND PROPORTIONS :    2, 0.06       3, 0.94
  5557 995-42-349      42    349.0       2064.    
     MULTIPLE LAYERS AND PROPORTIONS :    2, 0.06       3, 0.94
  5558 995-55-353      55    353.0       2044.    
     MULTIPLE LAYERS AND PROPORTIONS :    2, 0.06       3, 0.94
  5559 995-61-34       61    34.00       2030.    
     MULTIPLE LAYERS AND PROPORTIONS :    2, 0.06       3, 0.94
  5560 995-66-6        66    6.000       2019.    
     MULTIPLE LAYERS AND PROPORTIONS :    2, 0.06       3, 0.94
  5561 995-71-365      71    365.0       2033.    
  5562 1090-12-5       12    5.000       2086.    
  5563 1090-17-5       17    5.000       2083.    
  5564 969-56-19       56    19.00       2115.    
  5565 969-71-365      71    365.0       2107.    
  5566 983-42-349      42    349.0       2090.    
  5567 983-55-353      55    353.0       2067.    
  5568 983-61-34       61    34.00       2057.    
  5569 983-66-6        66    6.000       2052.    
  5570 983-71-365      71    365.0       2058.    
  5571 982-39-238      39    238.0       2104.    
  5572 921-42-305      42    305.0       2120.    
  5573 921-48-349      48    349.0       2116.    
  5574 921-61-34       61    34.00       2099.    
  5575 921-65-356      65    356.0       2092.    
  5576 921-71-365      71    365.0       2090.    
  5577 924-43-60       43    60.00       2107.    
  5578 924-48-348      48    348.0       2109.    
  5579 924-55-353      55    353.0       2097.    
  5580 924-61-34       61    34.00       2089.    
  5581 924-66-6        66    6.000       2081.    
  5582 924-71-365      71    365.0       2078.    
  5583 909-56-16       56    16.00       2118.    
  5584 911-34-337      34    337.0       2159.    
  5585 900-56-19       56    19.00       2180.    
     MULTIPLE LAYERS AND PROPORTIONS :    2, 0.48       3, 0.52
  5586 900-61-61       61    61.00       2192.    
     MULTIPLE LAYERS AND PROPORTIONS :    2, 0.48       3, 0.52
  5587 848-56-18       56    18.00       2195.    
     MULTIPLE LAYERS AND PROPORTIONS :    2, 0.56       3, 0.44
  5588 848-66-28       66    28.00       2195.    
     MULTIPLE LAYERS AND PROPORTIONS :    2, 0.56       3, 0.44
  5589 826-56-19       56    19.00       2208.    
  5590 800-61-61       61    61.00       2207.    
  5591 800-66-28       66    28.00       2194.    
  5592 803-33-59       33    59.00       2215.    
  5593 852-2-305        2    305.0       2140.    
  5594 1249-56-27      56    27.00       2347.    
  5595 1249-66-13      66    13.00       2266.    
  5596 1249-71-365     71    365.0       2273.    
  5597 1235-22-32      22    32.00       2376.    
     MULTIPLE LAYERS AND PROPORTIONS :    2, 0.35       3, 0.65
  5598 1235-42-362     42    362.0       2298.    
     MULTIPLE LAYERS AND PROPORTIONS :    2, 0.35       3, 0.65
  5599 1235-48-357     48    357.0       2338.    
     MULTIPLE LAYERS AND PROPORTIONS :    2, 0.35       3, 0.65
  5600 1235-56-32      56    32.00       2326.    
     MULTIPLE LAYERS AND PROPORTIONS :    2, 0.35       3, 0.65
  5601 1238-48-320     48    320.0       2316.    
  5602 1238-56-10      56   10.000       2288.    
  5603 1238-66-10      66   10.000       2251.    
  5604 1238-71-41      71    41.00       2262.    
  5605 1238-71-365     71    365.0       2267.    
  5606 1225-1-365       1    365.0       2430.    
 Observation within a steady-state time step has been moved to the end of the time step.
  5607 1200-56-30      56    30.00       2268.    
  5608 1200-66-10      66   10.000       2231.    
  5609 1200-71-40      71    40.00       2241.    
  5610 1198-71-48      71    48.00       2398.    
  5611 1262-48-320     48    320.0       2313.    
  5612 1262-56-10      56   10.000       2285.    
  5613 1262-60-362     60    362.0       2250.    
  5614 1262-66-10      66   10.000       2246.    
  5615 1262-71-41      71    41.00       2257.    
  5616 1263-48-320     48    320.0       2313.    
  5617 1263-56-10      56   10.000       2284.    
  5618 1263-60-362     60    362.0       2250.    
  5619 1263-66-10      66   10.000       2246.    
  5620 1263-71-60      71    60.00       2257.    
  5621 1263-71-365     71    365.0       2262.    
  5622 1239-17-44      17    44.00       2388.    
     MULTIPLE LAYERS AND PROPORTIONS :    1, 0.16       2, 0.58       3, 0.26
  5623 1239-22-32      22    32.00       2374.    
     MULTIPLE LAYERS AND PROPORTIONS :    1, 0.16       2, 0.58       3, 0.26
  5624 1239-43-5       43    5.000       2298.    
     MULTIPLE LAYERS AND PROPORTIONS :    2, 0.74       3, 0.26
  5625 1239-48-364     48    364.0       2319.    
     MULTIPLE LAYERS AND PROPORTIONS :    2, 0.74       3, 0.26
  5626 1239-56-41      56    41.00       2290.    
     MULTIPLE LAYERS AND PROPORTIONS :    2, 0.74       3, 0.26
  5627 1239-60-362     60    362.0       2257.    
     MULTIPLE LAYERS AND PROPORTIONS :    2, 0.74       3, 0.26
  5628 1239-66-10      66   10.000       2254.    
     MULTIPLE LAYERS AND PROPORTIONS :    2, 0.74       3, 0.26
  5629 1239-71-365     71    365.0       2270.    
     MULTIPLE LAYERS AND PROPORTIONS :    1, 0.16       2, 0.58       3, 0.26
  5630 1232-48-321     48    321.0       2316.    
  5631 1232-56-27      56    27.00       2288.    
  5632 1232-60-361     60    361.0       2254.    
  5633 1232-66-10      66   10.000       2251.    
  5634 1232-71-41      71    41.00       2262.    
  5635 1241-56-27      56    27.00       2287.    
  5636 1241-66-10      66   10.000       2250.    
  5637 1241-71-40      71    40.00       2260.    
  5638 1270-56-30      56    30.00       2282.    
  5639 1270-71-42      71    42.00       2255.    
  5640 1273-43-1       43   1.0000       2285.    
  5641 1273-48-364     48    364.0       2306.    
  5642 1273-56-32      56    32.00       2276.    
  5643 1273-60-362     60    362.0       2242.    
  5644 1273-65-348     65    348.0       2239.    
  5645 1273-71-365     71    365.0       2255.    
  5646 1256-1-365       1    365.0       2388.    
 Observation within a steady-state time step has been moved to the end of the time step.
  5647 1234-43-5       43    5.000       2295.    
     MULTIPLE LAYERS AND PROPORTIONS :    2, 0.48       3, 0.52
  5648 1234-48-364     48    364.0       2316.    
     MULTIPLE LAYERS AND PROPORTIONS :    2, 0.48       3, 0.52
  5649 1234-56-32      56    32.00       2288.    
     MULTIPLE LAYERS AND PROPORTIONS :    2, 0.48       3, 0.52
  5650 1234-60-362     60    362.0       2254.    
     MULTIPLE LAYERS AND PROPORTIONS :    2, 0.48       3, 0.52
  5651 1233-56-32      56    32.00       2288.    
  5652 1233-65-337     65    337.0       2255.    
  5653 1233-71-365     71    365.0       2272.    
  5654 1227-17-44      17    44.00       2392.    
     MULTIPLE LAYERS AND PROPORTIONS :    2, 0.25       3, 0.75
  5655 1227-22-58      22    58.00       2377.    
     MULTIPLE LAYERS AND PROPORTIONS :    2, 0.25       3, 0.75
  5656 1227-31-335     31    335.0       2354.    
     MULTIPLE LAYERS AND PROPORTIONS :    2, 0.25       3, 0.75
  5657 1227-43-5       43    5.000       2301.    
     MULTIPLE LAYERS AND PROPORTIONS :    2, 0.25       3, 0.75
  5658 1227-48-364     48    364.0       2322.    
     MULTIPLE LAYERS AND PROPORTIONS :    2, 0.25       3, 0.75
  5659 1227-56-32      56    32.00       2295.    
     MULTIPLE LAYERS AND PROPORTIONS :    2, 0.25       3, 0.75
  5660 1227-61-60      61    60.00       2261.    
     MULTIPLE LAYERS AND PROPORTIONS :    2, 0.25       3, 0.75
  5661 1227-71-365     71    365.0       2273.    
     MULTIPLE LAYERS AND PROPORTIONS :    2, 0.25       3, 0.75
  5662 1208-1-364       1    364.0       2408.    
 Observation within a steady-state time step has been moved to the end of the time step.
  5663 1208-6-360       6    360.0       2405.    
  5664 1208-11-360     11    360.0       2387.    
  5665 1208-16-357     16    357.0       2389.    
  5666 1208-21-361     21    361.0       2372.    
  5667 1208-26-354     26    354.0       2402.    
  5668 1208-31-362     31    362.0       2395.    
  5669 1219-22-33      22    33.00       2371.    
     MULTIPLE LAYERS AND PROPORTIONS :    1, 0.28       2, 0.09       3, 0.63
  5670 1219-33-165     33    165.0       2333.    
     MULTIPLE LAYERS AND PROPORTIONS :    2, 0.38       3, 0.62
  5671 1219-42-362     42    362.0       2295.    
     MULTIPLE LAYERS AND PROPORTIONS :    2, 0.38       3, 0.62
  5672 1219-48-357     48    357.0       2316.    
     MULTIPLE LAYERS AND PROPORTIONS :    2, 0.38       3, 0.62
  5673 1219-56-32      56    32.00       2290.    
     MULTIPLE LAYERS AND PROPORTIONS :    2, 0.38       3, 0.62
  5674 1219-60-362     60    362.0       2256.    
     MULTIPLE LAYERS AND PROPORTIONS :    2, 0.38       3, 0.62
  5675 1219-66-10      66   10.000       2253.    
     MULTIPLE LAYERS AND PROPORTIONS :    2, 0.37       3, 0.63
  5676 1219-71-365     71    365.0       2269.    
     MULTIPLE LAYERS AND PROPORTIONS :    1, 0.28       2, 0.10       3, 0.62
  5677 1217-56-27      56    27.00       2292.    
  5678 1217-71-365     71    365.0       2271.    
  5679 1205-33-160     33    160.0       2338.    
     MULTIPLE LAYERS AND PROPORTIONS :    1, 0.34       2, 0.11       3, 0.55
  5680 1205-42-362     42    362.0       2300.    
     MULTIPLE LAYERS AND PROPORTIONS :    2, 0.45       3, 0.55
  5681 1205-48-357     48    357.0       2322.    
     MULTIPLE LAYERS AND PROPORTIONS :    2, 0.45       3, 0.55
  5682 1205-56-34      56    34.00       2298.    
     MULTIPLE LAYERS AND PROPORTIONS :    2, 0.45       3, 0.55
  5683 1205-66-10      66   10.000       2296.    
     MULTIPLE LAYERS AND PROPORTIONS :    2, 0.45       3, 0.55
  5684 1231-7-66        7    66.00       2392.    
     MULTIPLE LAYERS AND PROPORTIONS :    1, 0.33       2, 0.52       3, 0.15
  5685 1231-12-57      12    57.00       2377.    
     MULTIPLE LAYERS AND PROPORTIONS :    1, 0.33       2, 0.52       3, 0.15
  5686 1231-17-4       17    4.000       2375.    
     MULTIPLE LAYERS AND PROPORTIONS :    1, 0.33       2, 0.52       3, 0.15
  5687 1231-22-32      22    32.00       2364.    
     MULTIPLE LAYERS AND PROPORTIONS :    1, 0.33       2, 0.52       3, 0.15
  5688 1231-27-10      27   10.000       2353.    
     MULTIPLE LAYERS AND PROPORTIONS :    1, 0.33       2, 0.52       3, 0.15
  5689 1231-31-335     31    335.0       2341.    
     MULTIPLE LAYERS AND PROPORTIONS :    1, 0.33       2, 0.52       3, 0.15
  5690 1231-37-335     37    335.0       2333.    
     MULTIPLE LAYERS AND PROPORTIONS :    2, 0.85       3, 0.15
  5691 1179-6-115       6    115.0       2415.    
  5692 1168-17-47      17    47.00       2403.    
  5693 1168-22-32      22    32.00       2392.    
  5694 1168-36-335     36    335.0       2315.    
  5695 1114-1-365       1    365.0       2440.    
 Observation within a steady-state time step has been moved to the end of the time step.
  5696 1122-17-47      17    47.00       2418.    
  5697 1122-22-32      22    32.00       2391.    
  5698 1122-42-356     42    356.0       2298.    
  5699 1122-48-335     48    335.0       2336.    
  5700 1140-7-66        7    66.00       2423.    
     MULTIPLE LAYERS AND PROPORTIONS :    1, 0.46       2, 0.52       3, 0.02
  5701 1140-12-57      12    57.00       2419.    
     MULTIPLE LAYERS AND PROPORTIONS :    1, 0.46       2, 0.52       3, 0.02
  5702 1140-17-4       17    4.000       2406.    
     MULTIPLE LAYERS AND PROPORTIONS :    1, 0.46       2, 0.52       3, 0.02
  5703 1140-22-32      22    32.00       2395.    
     MULTIPLE LAYERS AND PROPORTIONS :    1, 0.46       2, 0.52       3, 0.02
  5704 1140-31-335     31    335.0       2361.    
     MULTIPLE LAYERS AND PROPORTIONS :    2, 0.98       3, 0.02
  5705 1140-36-345     36    345.0       2332.    
     MULTIPLE LAYERS AND PROPORTIONS :    2, 0.98       3, 0.02
  5706 1193-48-321     48    321.0       2325.    
     MULTIPLE LAYERS AND PROPORTIONS :    2, 0.62       3, 0.38
  5707 1193-56-30      56    30.00       2300.    
     MULTIPLE LAYERS AND PROPORTIONS :    2, 0.62       3, 0.38
  5708 1176-48-320     48    320.0       2326.    
  5709 1176-56-10      56   10.000       2302.    
  5710 1176-60-361     60    361.0       2271.    
  5711 1176-66-10      66   10.000       2265.    
  5712 1176-71-40      71    40.00       2276.    
  5713 1176-71-365     71    365.0       2282.    
  5714 1159-66-10      66   10.000       2352.    
  5715 1159-71-62      71    62.00       2331.    
  5716 1159-71-365     71    365.0       2326.    
  5717 1160-71-62      71    62.00       2408.    
     MULTIPLE LAYERS AND PROPORTIONS :    1, 0.79       2, 0.21
  5718 1160-71-365     71    365.0       2409.    
     MULTIPLE LAYERS AND PROPORTIONS :    1, 0.79       2, 0.21
  5719 1147-42-356     42    356.0       2384.    
  5720 1147-48-335     48    335.0       2391.    
  5721 1147-56-17      56    17.00       2388.    
  5722 1141-1-274       1    274.0       2417.    
 Observation within a steady-state time step has been moved to the end of the time step.
  5723 1141-7-176       7    176.0       2412.    
  5724 1141-11-311     11    311.0       2405.    
  5725 1141-17-44      17    44.00       2406.    
  5726 1141-22-30      22    30.00       2388.    
  5727 1141-26-349     26    349.0       2370.    
  5728 1141-31-362     31    362.0       2359.    
  5729 1141-36-356     36    356.0       2320.    
  5730 1141-42-362     42    362.0       2302.    
  5731 1141-48-364     48    364.0       2330.    
  5732 1141-56-32      56    32.00       2308.    
  5733 1141-60-362     60    362.0       2280.    
  5734 1141-66-1       66   1.0000       2273.    
  5735 1141-71-365     71    365.0       2289.    
  5736 1121-17-44      17    44.00       2430.    
     MULTIPLE LAYERS AND PROPORTIONS :    1, 0.34       2, 0.21       3, 0.45
  5737 1121-22-33      22    33.00       2397.    
     MULTIPLE LAYERS AND PROPORTIONS :    1, 0.34       2, 0.21       3, 0.45
  5738 1121-31-335     31    335.0       2362.    
     MULTIPLE LAYERS AND PROPORTIONS :    1, 0.34       2, 0.21       3, 0.45
  5739 1121-35-345     35    345.0       2332.    
     MULTIPLE LAYERS AND PROPORTIONS :    2, 0.55       3, 0.45
  5740 1121-42-356     42    356.0       2319.    
     MULTIPLE LAYERS AND PROPORTIONS :    2, 0.55       3, 0.45
  5741 1121-48-355     48    355.0       2339.    
     MULTIPLE LAYERS AND PROPORTIONS :    2, 0.55       3, 0.45
  5742 1121-56-32      56    32.00       2335.    
     MULTIPLE LAYERS AND PROPORTIONS :    2, 0.55       3, 0.45
  5743 1121-60-362     60    362.0       2321.    
     MULTIPLE LAYERS AND PROPORTIONS :    2, 0.55       3, 0.45
  5744 1121-65-348     65    348.0       2330.    
     MULTIPLE LAYERS AND PROPORTIONS :    1, 0.34       2, 0.21       3, 0.45
  5745 1121-71-365     71    365.0       2333.    
     MULTIPLE LAYERS AND PROPORTIONS :    1, 0.34       2, 0.21       3, 0.45
  5746 1192-71-55      71    55.00       2429.    
  5747 1157-48-322     48    322.0       2327.    
  5748 1157-56-10      56   10.000       2305.    
  5749 1157-60-361     60    361.0       2275.    
  5750 1157-66-10      66   10.000       2269.    
  5751 1157-71-40      71    40.00       2280.    
  5752 1180-48-323     48    323.0       2405.    
  5753 1167-71-365     71    365.0       2406.    
     MULTIPLE LAYERS AND PROPORTIONS :    1, 0.91       2, 0.09
  5754 1170-71-365     71    365.0       2406.    
     MULTIPLE LAYERS AND PROPORTIONS :    1, 0.69       2, 0.31
  5755 1172-71-365     71    365.0       2406.    
  5756 1163-71-365     71    365.0       2407.    
     MULTIPLE LAYERS AND PROPORTIONS :    1, 0.88       2, 0.12
  5757 1155-71-365     71    365.0       2404.    
  5758 1144-71-365     71    365.0       2418.    
     MULTIPLE LAYERS AND PROPORTIONS :    2, 0.20       3, 0.80
  5759 1080-22-33      22    33.00       2448.    
  5760 1080-31-335     31    335.0       2422.    
  5761 1080-42-356     42    356.0       2428.    
  5762 1080-48-355     48    355.0       2431.    
  5763 1085-42-356     42    356.0       2323.    
     MULTIPLE LAYERS AND PROPORTIONS :    1, 0.12       2, 0.38       3, 0.50
  5764 1085-48-355     48    355.0       2409.    
     MULTIPLE LAYERS AND PROPORTIONS :    1, 0.12       2, 0.38       3, 0.50
  5765 1091-71-56      71    56.00       2424.    
  5766 1048-71-365     71    365.0       2439.    
     MULTIPLE LAYERS AND PROPORTIONS :    1, 0.20       2, 0.12       3, 0.68
  5767 1012-71-365     71    365.0       2441.    
     MULTIPLE LAYERS AND PROPORTIONS :    1, 0.50       2, 0.31       3, 0.19
  5768 1039-48-322     48    322.0       2338.    
  5769 1039-56-30      56    30.00       2315.    
  5770 1039-60-362     60    362.0       2288.    
  5771 1039-66-13      66    13.00       2281.    
  5772 1039-71-365     71    365.0       2299.    
  5773 1040-71-365     71    365.0       2448.    
  5774 1075-17-44      17    44.00       2442.    
     MULTIPLE LAYERS AND PROPORTIONS :    1, 0.35       2, 0.04       3, 0.61
  5775 1075-22-33      22    33.00       2435.    
     MULTIPLE LAYERS AND PROPORTIONS :    1, 0.35       2, 0.04       3, 0.61
  5776 1075-31-335     31    335.0       2413.    
     MULTIPLE LAYERS AND PROPORTIONS :    1, 0.35       2, 0.04       3, 0.61
  5777 1053-42-357     42    357.0       2358.    
  5778 1056-48-335     48    335.0       2338.    
  5779 1056-56-17      56    17.00       2317.    
  5780 1016-17-32      17    32.00       2422.    
  5781 1016-31-335     31    335.0       2366.    
  5782 1016-37-319     37    319.0       2356.    
  5783 1011-22-33      22    33.00       2391.    
     MULTIPLE LAYERS AND PROPORTIONS :    1, 0.14       2, 0.14       3, 0.72
  5784 1015-42-356     42    356.0       2311.    
  5785 1015-48-337     48    337.0       2332.    
  5786 1015-56-19      56    19.00       2335.    
  5787 1015-61-53      61    53.00       2295.    
  5788 1015-66-32      66    32.00       2286.    
  5789 1094-1-277       1    277.0       2430.    
 Observation within a steady-state time step has been moved to the end of the time step.
  5790 1094-6-340       6    340.0       2427.    
  5791 1094-10-27      10    27.00       2424.    
  5792 1077-7-176       7    176.0       2432.    
     MULTIPLE LAYERS AND PROPORTIONS :    1, 0.24       2, 0.76
  5793 1063-17-46      17    46.00       2415.    
     MULTIPLE LAYERS AND PROPORTIONS :    1, 0.12       2, 0.55       3, 0.33
  5794 1063-22-33      22    33.00       2394.    
     MULTIPLE LAYERS AND PROPORTIONS :    1, 0.12       2, 0.55       3, 0.33
  5795 1034-36-335     36    335.0       2322.    
     MULTIPLE LAYERS AND PROPORTIONS :    2, 0.39       3, 0.61
  5796 1034-42-362     42    362.0       2309.    
     MULTIPLE LAYERS AND PROPORTIONS :    2, 0.39       3, 0.61
  5797 1034-48-357     48    357.0       2346.    
     MULTIPLE LAYERS AND PROPORTIONS :    2, 0.39       3, 0.61
  5798 1034-56-34      56    34.00       2323.    
     MULTIPLE LAYERS AND PROPORTIONS :    2, 0.39       3, 0.61
  5799 1034-66-1       66   1.0000       2293.    
     MULTIPLE LAYERS AND PROPORTIONS :    2, 0.39       3, 0.61
  5800 1034-71-54      71    54.00       2305.    
     MULTIPLE LAYERS AND PROPORTIONS :    2, 0.39       3, 0.61
  5801 1034-71-365     71    365.0       2310.    
     MULTIPLE LAYERS AND PROPORTIONS :    2, 0.39       3, 0.61
  5802 997-17-46       17    46.00       2437.    
  5803 997-22-33       22    33.00       2420.    
  5804 1008-1-121       1    121.0       2454.    
 Observation within a steady-state time step has been moved to the end of the time step.
  5805 1049-17-46      17    46.00       2418.    
     MULTIPLE LAYERS AND PROPORTIONS :    2, 0.38       3, 0.62
  5806 1049-31-335     31    335.0       2358.    
     MULTIPLE LAYERS AND PROPORTIONS :    2, 0.38       3, 0.62
  5807 1049-36-335     36    335.0       2342.    
     MULTIPLE LAYERS AND PROPORTIONS :    2, 0.38       3, 0.62
  5808 1049-42-356     42    356.0       2307.    
     MULTIPLE LAYERS AND PROPORTIONS :    2, 0.38       3, 0.62
  5809 1049-48-334     48    334.0       2341.    
     MULTIPLE LAYERS AND PROPORTIONS :    2, 0.38       3, 0.62
  5810 1049-56-18      56    18.00       2319.    
     MULTIPLE LAYERS AND PROPORTIONS :    2, 0.38       3, 0.62
  5811 1049-61-53      61    53.00       2292.    
     MULTIPLE LAYERS AND PROPORTIONS :    2, 0.38       3, 0.62
  5812 1007-11-194     11    194.0       2432.    
  5813 1007-17-4       17    4.000       2433.    
  5814 1007-22-32      22    32.00       2411.    
  5815 1007-27-10      27   10.000       2401.    
  5816 1007-31-335     31    335.0       2370.    
  5817 1007-37-319     37    319.0       2361.    
  5818 1006-1-364       1    364.0       2442.    
 Observation within a steady-state time step has been moved to the end of the time step.
  5819 1006-7-66        7    66.00       2438.    
  5820 1006-11-258     11    258.0       2368.    
  5821 1006-17-44      17    44.00       2426.    
  5822 1065-42-356     42    356.0       2413.    
  5823 1065-48-334     48    334.0       2415.    
  5824 1065-56-18      56    18.00       2414.    
  5825 1065-66-24      66    24.00       2413.    
  5826 991-22-34       22    34.00       2435.    
  5827 991-26-279      26    279.0       2422.    
  5828 991-31-335      31    335.0       2404.    
  5829 991-37-319      37    319.0       2396.    
  5830 991-42-356      42    356.0       2390.    
  5831 991-48-334      48    334.0       2394.    
  5832 991-66-27       66    27.00       2392.    
  5833 976-1-365        1    365.0       2456.    
 Observation within a steady-state time step has been moved to the end of the time step.
  5834 963-1-365        1    365.0       2458.    
 Observation within a steady-state time step has been moved to the end of the time step.
  5835 964-1-365        1    365.0       2458.    
 Observation within a steady-state time step has been moved to the end of the time step.
  5836 960-1-365        1    365.0       2471.    
 Observation within a steady-state time step has been moved to the end of the time step.
  5837 953-1-364        1    364.0       2473.    
 Observation within a steady-state time step has been moved to the end of the time step.
  5838 950-17-4        17    4.000       2472.    
  5839 936-1-365        1    365.0       2461.    
 Observation within a steady-state time step has been moved to the end of the time step.
  5840 932-1-365        1    365.0       2504.    
 Observation within a steady-state time step has been moved to the end of the time step.
  5841 944-42-356      42    356.0       2356.    
  5842 944-48-341      48    341.0       2376.    
  5843 926-1-365        1    365.0       2487.    
 Observation within a steady-state time step has been moved to the end of the time step.
  5844 929-1-364        1    364.0       2484.    
 Observation within a steady-state time step has been moved to the end of the time step.
  5845 929-6-340        6    340.0       2482.    
  5846 929-11-333      11    333.0       2478.    
  5847 929-16-301      16    301.0       2474.    
  5848 974-42-362      42    362.0       2301.    
  5849 974-48-336      48    336.0       2335.    
  5850 974-56-18       56    18.00       2322.    
  5851 957-1-365        1    365.0       2481.    
 Observation within a steady-state time step has been moved to the end of the time step.
  5852 942-1-365        1    365.0       2544.    
 Observation within a steady-state time step has been moved to the end of the time step.
  5853 937-1-364        1    364.0       2473.    
 Observation within a steady-state time step has been moved to the end of the time step.
  5854 943-22-32       22    32.00       2442.    
  5855 943-26-279      26    279.0       2421.    
  5856 943-31-335      31    335.0       2403.    
  5857 943-36-335      36    335.0       2365.    
  5858 943-42-351      42    351.0       2351.    
  5859 943-48-336      48    336.0       2355.    
  5860 862-22-33       22    33.00       2507.    
     MULTIPLE LAYERS AND PROPORTIONS :    1, 0.34       2, 0.34       3, 0.32
  5861 862-27-59       27    59.00       2490.    
     MULTIPLE LAYERS AND PROPORTIONS :    1, 0.34       2, 0.34       3, 0.32
  5862 862-31-335      31    335.0       2453.    
     MULTIPLE LAYERS AND PROPORTIONS :    1, 0.34       2, 0.34       3, 0.32
  5863 862-36-336      36    336.0       2434.    
     MULTIPLE LAYERS AND PROPORTIONS :    1, 0.34       2, 0.34       3, 0.32
  5864 862-42-351      42    351.0       2426.    
     MULTIPLE LAYERS AND PROPORTIONS :    1, 0.34       2, 0.34       3, 0.32
  5865 862-48-337      48    337.0       2442.    
     MULTIPLE LAYERS AND PROPORTIONS :    1, 0.34       2, 0.34       3, 0.32
  5866 901-1-364        1    364.0       2513.    
 Observation within a steady-state time step has been moved to the end of the time step.
  5867 907-37-342      37    342.0       2408.    
     MULTIPLE LAYERS AND PROPORTIONS :    2, 0.59       3, 0.41
  5868 903-1-365        1    365.0       2503.    
 Observation within a steady-state time step has been moved to the end of the time step.
  5869 895-42-356      42    356.0       2392.    
  5870 895-48-337      48    337.0       2386.    
  5871 898-1-32         1    32.00       2492.    
 Observation within a steady-state time step has been moved to the end of the time step.
  5872 898-17-4        17    4.000       2491.    
  5873 889-22-32       22    32.00       2489.    
     MULTIPLE LAYERS AND PROPORTIONS :    1, 0.20       2, 0.22       3, 0.58
  5874 889-26-279      26    279.0       2467.    
     MULTIPLE LAYERS AND PROPORTIONS :    1, 0.20       2, 0.22       3, 0.58
  5875 889-31-335      31    335.0       2455.    
     MULTIPLE LAYERS AND PROPORTIONS :    1, 0.20       2, 0.22       3, 0.58
  5876 889-36-336      36    336.0       2425.    
     MULTIPLE LAYERS AND PROPORTIONS :    1, 0.20       2, 0.22       3, 0.58
  5877 889-42-356      42    356.0       2380.    
     MULTIPLE LAYERS AND PROPORTIONS :    1, 0.20       2, 0.22       3, 0.58
  5878 889-48-337      48    337.0       2404.    
     MULTIPLE LAYERS AND PROPORTIONS :    1, 0.20       2, 0.22       3, 0.58
  5879 889-61-54       61    54.00       2384.    
     MULTIPLE LAYERS AND PROPORTIONS :    1, 0.20       2, 0.22       3, 0.58
  5880 883-42-356      42    356.0       2375.    
  5881 621-37-343      37    343.0       2434.    
     MULTIPLE LAYERS AND PROPORTIONS :    2, 0.16       3, 0.84
  5882 934-33-21       33    21.00       2430.    
  5883 863-1-365        1    365.0       2520.    
 Observation within a steady-state time step has been moved to the end of the time step.
  5884 914-48-336      48    336.0       2386.    
  5885 914-61-55       61    55.00       2363.    
  5886 902-17-47       17    47.00       2483.    
     MULTIPLE LAYERS AND PROPORTIONS :    1, 0.16       2, 0.17       3, 0.67
  5887 902-22-32       22    32.00       2476.    
     MULTIPLE LAYERS AND PROPORTIONS :    1, 0.16       2, 0.17       3, 0.67
  5888 902-26-278      26    278.0       2456.    
     MULTIPLE LAYERS AND PROPORTIONS :    1, 0.16       2, 0.17       3, 0.67
  5889 902-36-336      36    336.0       2408.    
     MULTIPLE LAYERS AND PROPORTIONS :    1, 0.17       2, 0.17       3, 0.66
  5890 902-42-356      42    356.0       2375.    
     MULTIPLE LAYERS AND PROPORTIONS :    2, 0.33       3, 0.67
  5891 902-48-337      48    337.0       2392.    
     MULTIPLE LAYERS AND PROPORTIONS :    2, 0.33       3, 0.67
  5892 902-61-54       61    54.00       2366.    
     MULTIPLE LAYERS AND PROPORTIONS :    2, 0.33       3, 0.67
  5893 916-1-365        1    365.0       2494.    
 Observation within a steady-state time step has been moved to the end of the time step.
  5894 916-7-298        7    298.0       2486.    
  5895 916-11-258      11    258.0       2482.    
  5896 916-17-32       17    32.00       2483.    
  5897 916-22-34       22    34.00       2477.    
  5898 916-26-278      26    278.0       2448.    
  5899 916-36-336      36    336.0       2401.    
  5900 916-42-362      42    362.0       2381.    
  5901 916-48-335      48    335.0       2388.    
  5902 916-61-55       61    55.00       2363.    
  5903 917-42-362      42    362.0       2386.    
  5904 917-48-335      48    335.0       2398.    
  5905 905-1-365        1    365.0       2494.    
 Observation within a steady-state time step has been moved to the end of the time step.
  5906 910-42-362      42    362.0       2406.    
     MULTIPLE LAYERS AND PROPORTIONS :    2, 0.05       3, 0.95
  5907 897-1-365        1    365.0       2511.    
 Observation within a steady-state time step has been moved to the end of the time step.
  5908 864-1-364        1    364.0       2511.    
 Observation within a steady-state time step has been moved to the end of the time step.
  5909 865-42-356      42    356.0       2388.    
     MULTIPLE LAYERS AND PROPORTIONS :    2, 0.53       3, 0.47
  5910 865-48-335      48    335.0       2411.    
     MULTIPLE LAYERS AND PROPORTIONS :    2, 0.53       3, 0.47
  5911 854-1-365        1    365.0       2516.    
 Observation within a steady-state time step has been moved to the end of the time step.
  5912 856-1-365        1    365.0       2515.    
 Observation within a steady-state time step has been moved to the end of the time step.
  5913 851-22-34       22    34.00       2501.    
     MULTIPLE LAYERS AND PROPORTIONS :    1, 0.27       2, 0.18       3, 0.55
  5914 851-26-278      26    278.0       2480.    
     MULTIPLE LAYERS AND PROPORTIONS :    1, 0.27       2, 0.18       3, 0.55
  5915 851-37-342      37    342.0       2445.    
     MULTIPLE LAYERS AND PROPORTIONS :    1, 0.27       2, 0.18       3, 0.55
  5916 851-48-337      48    337.0       2426.    
     MULTIPLE LAYERS AND PROPORTIONS :    2, 0.45       3, 0.55
  5917 851-61-54       61    54.00       2417.    
     MULTIPLE LAYERS AND PROPORTIONS :    2, 0.45       3, 0.55
  5918 843-1-365        1    365.0       2514.    
 Observation within a steady-state time step has been moved to the end of the time step.
  5919 841-1-365        1    365.0       2523.    
 Observation within a steady-state time step has been moved to the end of the time step.
  5920 836-17-4        17    4.000       2508.    
  5921 823-1-365        1    365.0       2528.    
 Observation within a steady-state time step has been moved to the end of the time step.
  5922 859-48-337      48    337.0       2415.    
  5923 842-37-342      37    342.0       2445.    
     MULTIPLE LAYERS AND PROPORTIONS :    2, 0.23       3, 0.77
  5924 842-42-356      42    356.0       2428.    
     MULTIPLE LAYERS AND PROPORTIONS :    2, 0.23       3, 0.77
  5925 842-48-337      48    337.0       2429.    
     MULTIPLE LAYERS AND PROPORTIONS :    2, 0.23       3, 0.77
  5926 842-61-54       61    54.00       2421.    
     MULTIPLE LAYERS AND PROPORTIONS :    2, 0.23       3, 0.77
  5927 831-42-351      42    351.0       2438.    
     MULTIPLE LAYERS AND PROPORTIONS :    1, 0.45       2, 0.55
  5928 831-48-337      48    337.0       2434.    
     MULTIPLE LAYERS AND PROPORTIONS :    1, 0.45       2, 0.55
  5929 828-42-351      42    351.0       2440.    
     MULTIPLE LAYERS AND PROPORTIONS :    1, 0.41       2, 0.33       3, 0.26
  5930 828-48-337      48    337.0       2437.    
     MULTIPLE LAYERS AND PROPORTIONS :    1, 0.41       2, 0.33       3, 0.26
  5931 819-1-365        1    365.0       2533.    
 Observation within a steady-state time step has been moved to the end of the time step.
  5932 1254-71-42      71    42.00       2339.    
  5933 1228-37-95      37    95.00       2395.    
  5934 1228-42-356     42    356.0       2381.    
  5935 1228-56-20      56    20.00       2381.    
  5936 1228-66-25      66    25.00       2353.    
  5937 1228-71-40      71    40.00       2348.    
  5938 1199-48-344     48    344.0       2388.    
  5939 1199-56-20      56    20.00       2389.    
  5940 1199-61-60      61    60.00       2375.    
  5941 1199-66-25      66    25.00       2369.    
  5942 1199-71-40      71    40.00       2361.    
  5943 1243-42-362     42    362.0       2314.    
  5944 1243-56-18      56    18.00       2313.    
  5945 1243-61-60      61    60.00       2294.    
  5946 1243-66-27      66    27.00       2283.    
  5947 1243-71-56      71    56.00       2280.    
  5948 1218-71-365     71    365.0       2422.    
     MULTIPLE LAYERS AND PROPORTIONS :    1, 0.32       2, 0.31       3, 0.37
  5949 1204-42-356     42    356.0       2298.    
     MULTIPLE LAYERS AND PROPORTIONS :    1, 0.15       2, 0.14       3, 0.71
  5950 1204-56-17      56    17.00       2295.    
     MULTIPLE LAYERS AND PROPORTIONS :    1, 0.15       2, 0.14       3, 0.71
  5951 1204-66-26      66    26.00       2264.    
     MULTIPLE LAYERS AND PROPORTIONS :    1, 0.15       2, 0.14       3, 0.71
  5952 1204-71-365     71    365.0       2283.    
     MULTIPLE LAYERS AND PROPORTIONS :    1, 0.15       2, 0.14       3, 0.71
  5953 1131-71-365     71    365.0       2433.    
  5954 1112-48-320     48    320.0       2331.    
  5955 1112-56-25      56    25.00       2321.    
  5956 1112-60-362     60    362.0       2302.    
  5957 1112-65-348     65    348.0       2295.    
  5958 1112-71-60      71    60.00       2306.    
  5959 1112-71-365     71    365.0       2310.    
  5960 1118-71-365     71    365.0       2460.    
  5961 1111-71-362     71    362.0       2461.    
     MULTIPLE LAYERS AND PROPORTIONS :    1, 0.54       2, 0.46
  5962 1169-71-362     71    362.0       2447.    
  5963 1100-48-348     48    348.0       2500.    
     MULTIPLE LAYERS AND PROPORTIONS :    1, 0.56       2, 0.44
  5964 1100-56-25      56    25.00       2499.    
     MULTIPLE LAYERS AND PROPORTIONS :    1, 0.56       2, 0.44
  5965 1100-61-56      61    56.00       2487.    
     MULTIPLE LAYERS AND PROPORTIONS :    1, 0.56       2, 0.44
  5966 1100-66-42      66    42.00       2474.    
     MULTIPLE LAYERS AND PROPORTIONS :    1, 0.56       2, 0.44
  5967 1100-71-365     71    365.0       2471.    
     MULTIPLE LAYERS AND PROPORTIONS :    1, 0.56       2, 0.44
  5968 1051-42-355     42    355.0       2511.    
     MULTIPLE LAYERS AND PROPORTIONS :    2, 0.84       3, 0.16
  5969 1051-48-365     48    365.0       2505.    
     MULTIPLE LAYERS AND PROPORTIONS :    2, 0.84       3, 0.16
  5970 1051-56-25      56    25.00       2501.    
     MULTIPLE LAYERS AND PROPORTIONS :    2, 0.84       3, 0.16
  5971 1051-61-42      61    42.00       2495.    
     MULTIPLE LAYERS AND PROPORTIONS :    2, 0.84       3, 0.16
  5972 1051-66-53      66    53.00       2487.    
     MULTIPLE LAYERS AND PROPORTIONS :    2, 0.84       3, 0.16
  5973 1051-71-365     71    365.0       2480.    
     MULTIPLE LAYERS AND PROPORTIONS :    2, 0.84       3, 0.16
  5974 1036-12-95      12    95.00       2539.    
  5975 1036-26-349     26    349.0       2538.    
  5976 1036-48-348     48    348.0       2513.    
  5977 1036-56-25      56    25.00       2511.    
  5978 1036-61-42      61    42.00       2505.    
  5979 1036-66-53      66    53.00       2496.    
  5980 1036-71-365     71    365.0       2487.    
  5981 1025-56-27      56    27.00       2508.    
  5982 1025-66-59      66    59.00       2497.    
  5983 1054-66-59      66    59.00       2488.    
  5984 1055-65-348     65    348.0       2483.    
  5985 1001-56-18      56    18.00       2499.    
  5986 1001-65-348     65    348.0       2495.    
  5987 1027-56-18      56    18.00       2499.    
  5988 1086-71-55      71    55.00       2451.    
  5989 1099-26-349     26    349.0       2377.    
     MULTIPLE LAYERS AND PROPORTIONS :    1, 0.26       2, 0.24       3, 0.50
  5990 1099-43-4       43    4.000       2312.    
     MULTIPLE LAYERS AND PROPORTIONS :    1, 0.26       2, 0.24       3, 0.50
  5991 1099-48-362     48    362.0       2335.    
     MULTIPLE LAYERS AND PROPORTIONS :    1, 0.26       2, 0.24       3, 0.50
  5992 1099-56-9       56    9.000       2312.    
     MULTIPLE LAYERS AND PROPORTIONS :    1, 0.26       2, 0.24       3, 0.50
  5993 1042-48-355     48    355.0       2340.    
  5994 1042-56-25      56    25.00       2320.    
  5995 1042-60-362     60    362.0       2294.    
  5996 1042-65-348     65    348.0       2287.    
  5997 1042-71-365     71    365.0       2304.    
  5998 952-56-33       56    33.00       2509.    
  5999 952-65-348      65    348.0       2501.    
  6000 949-56-27       56    27.00       2530.    
  6001 993-56-27       56    27.00       2504.    
  6002 956-56-29       56    29.00       2515.    
  6003 886-71-355      71    355.0       2505.    
     MULTIPLE LAYERS AND PROPORTIONS :    2, 0.15       3, 0.85
  6004 886-71-362      71    362.0       2497.    
     MULTIPLE LAYERS AND PROPORTIONS :    2, 0.15       3, 0.85
  6005 913-42-355      42    355.0       2532.    
  6006 913-48-334      48    334.0       2529.    
  6007 913-56-18       56    18.00       2525.    
  6008 913-61-53       61    53.00       2521.    
  6009 913-66-32       66    32.00       2513.    
  6010 874-71-61       71    61.00       2503.    
  6011 933-48-338      48    338.0       2507.    
  6012 933-56-18       56    18.00       2504.    
  6013 933-61-53       61    53.00       2501.    
  6014 933-66-32       66    32.00       2498.    
  6015 887-26-285      26    285.0       2524.    
     MULTIPLE LAYERS AND PROPORTIONS :    1, 0.61       2, 0.39
  6016 887-31-335      31    335.0       2519.    
     MULTIPLE LAYERS AND PROPORTIONS :    1, 0.61       2, 0.39
  6017 887-37-1        37   1.0000       2505.    
     MULTIPLE LAYERS AND PROPORTIONS :    1, 0.61       2, 0.39
  6018 887-42-357      42    357.0       2478.    
     MULTIPLE LAYERS AND PROPORTIONS :    1, 0.61       2, 0.39
  6019 877-42-352      42    352.0       2515.    
  6020 877-48-338      48    338.0       2518.    
  6021 877-61-53       61    53.00       2510.    
  6022 877-66-32       66    32.00       2509.    
  6023 919-42-357      42    357.0       2478.    
     MULTIPLE LAYERS AND PROPORTIONS :    1, 0.81       2, 0.19
  6024 920-42-357      42    357.0       2473.    
     MULTIPLE LAYERS AND PROPORTIONS :    1, 0.88       2, 0.12
  6025 888-42-357      42    357.0       2467.    
  6026 892-17-48       17    48.00       2512.    
     MULTIPLE LAYERS AND PROPORTIONS :    1, 0.61       2, 0.39
  6027 892-22-37       22    37.00       2508.    
     MULTIPLE LAYERS AND PROPORTIONS :    1, 0.61       2, 0.39
  6028 892-26-285      26    285.0       2497.    
     MULTIPLE LAYERS AND PROPORTIONS :    1, 0.61       2, 0.39
  6029 892-31-335      31    335.0       2484.    
     MULTIPLE LAYERS AND PROPORTIONS :    1, 0.61       2, 0.39
  6030 892-36-337      36    337.0       2472.    
     MULTIPLE LAYERS AND PROPORTIONS :    1, 0.61       2, 0.39
  6031 878-36-335      36    335.0       2464.    
     MULTIPLE LAYERS AND PROPORTIONS :    1, 0.34       2, 0.66
  6032 878-42-359      42    359.0       2467.    
     MULTIPLE LAYERS AND PROPORTIONS :    1, 0.34       2, 0.66
  6033 878-71-365      71    365.0       2502.    
     MULTIPLE LAYERS AND PROPORTIONS :    1, 0.34       2, 0.66
  6034 853-22-37       22    37.00       2515.    
  6035 853-26-336      26    336.0       2491.    
  6036 853-48-362      48    362.0       2470.    
  6037 853-56-9        56    9.000       2454.    
  6038 853-61-47       61    47.00       2458.    
  6039 853-65-357      65    357.0       2495.    
  6040 853-71-362      71    362.0       2511.    
  6041 844-43-4        43    4.000       2467.    
     MULTIPLE LAYERS AND PROPORTIONS :    1, 0.49       2, 0.51
  6042 844-48-362      48    362.0       2462.    
     MULTIPLE LAYERS AND PROPORTIONS :    1, 0.49       2, 0.51
  6043 844-56-9        56    9.000       2474.    
     MULTIPLE LAYERS AND PROPORTIONS :    1, 0.49       2, 0.51
  6044 844-61-47       61    47.00       2465.    
     MULTIPLE LAYERS AND PROPORTIONS :    1, 0.49       2, 0.51
  6045 844-65-357      65    357.0       2498.    
     MULTIPLE LAYERS AND PROPORTIONS :    1, 0.49       2, 0.51
  6046 844-71-362      71    362.0       2515.    
     MULTIPLE LAYERS AND PROPORTIONS :    1, 0.49       2, 0.51
  6047 834-16-364      16    364.0       2533.    
     MULTIPLE LAYERS AND PROPORTIONS :    1, 0.92       2, 0.08
  6048 834-26-280      26    280.0       2484.    
     MULTIPLE LAYERS AND PROPORTIONS :    1, 0.92       2, 0.08
  6049 834-43-4        43    4.000       2465.    
     MULTIPLE LAYERS AND PROPORTIONS :    1, 0.92       2, 0.08
  6050 834-56-20       56    20.00       2471.    
     MULTIPLE LAYERS AND PROPORTIONS :    1, 0.92       2, 0.08
  6051 834-60-306      60    306.0       2458.    
     MULTIPLE LAYERS AND PROPORTIONS :    1, 0.92       2, 0.08
  6052 834-65-357      65    357.0       2497.    
     MULTIPLE LAYERS AND PROPORTIONS :    1, 0.92       2, 0.08
  6053 834-71-362      71    362.0       2514.    
     MULTIPLE LAYERS AND PROPORTIONS :    1, 0.92       2, 0.08
  6054 835-65-357      65    357.0       2500.    
  6055 835-71-362      71    362.0       2518.    
  6056 815-1-365        1    365.0       2541.    
 Observation within a steady-state time step has been moved to the end of the time step.
  6057 850-17-80       17    80.00       2544.    
  6058 850-22-37       22    37.00       2543.    
  6059 850-26-285      26    285.0       2538.    
  6060 850-31-335      31    335.0       2532.    
  6061 850-38-60       38    60.00       2520.    
  6062 850-42-352      42    352.0       2509.    
  6063 850-48-338      48    338.0       2512.    
  6064 850-60-320      60    320.0       2501.    
  6065 850-65-298      65    298.0       2503.    
  6066 850-71-365      71    365.0       2504.    
  6067 1259-66-59      66    59.00       2533.    
  6068 1236-66-59      66    59.00       2562.    
  6069 1260-66-59      66    59.00       2532.    
  6070 1244-66-59      66    59.00       2536.    
  6071 1252-35-23      35    23.00       2516.    
  6072 1267-71-365     71    365.0       2476.    
  6073 1253-37-90      37    90.00       2465.    
  6074 1253-42-355     42    355.0       2463.    
  6075 1253-48-349     48    349.0       2460.    
  6076 1253-56-11      56    11.00       2455.    
  6077 1253-61-56      61    56.00       2448.    
  6078 1253-66-59      66    59.00       2441.    
  6079 1253-71-365     71    365.0       2429.    
  6080 1245-37-90      37    90.00       2438.    
  6081 1245-42-355     42    355.0       2425.    
  6082 1245-48-349     48    349.0       2420.    
  6083 1245-55-357     55    357.0       2417.    
  6084 1245-61-12      61    12.00       2408.    
  6085 1245-66-49      66    49.00       2401.    
  6086 1245-71-365     71    365.0       2392.    
  6087 1250-17-86      17    86.00       2461.    
     MULTIPLE LAYERS AND PROPORTIONS :    1, 0.42       2, 0.58
  6088 1250-32-69      32    69.00       2422.    
     MULTIPLE LAYERS AND PROPORTIONS :    1, 0.42       2, 0.58
  6089 1250-37-95      37    95.00       2405.    
     MULTIPLE LAYERS AND PROPORTIONS :    1, 0.42       2, 0.58
  6090 1250-56-19      56    19.00       2380.    
  6091 1250-61-60      61    60.00       2364.    
  6092 1251-12-296     12    296.0       2472.    
     MULTIPLE LAYERS AND PROPORTIONS :    1, 0.24       2, 0.76
  6093 1251-17-86      17    86.00       2459.    
     MULTIPLE LAYERS AND PROPORTIONS :    1, 0.24       2, 0.76
  6094 1251-32-69      32    69.00       2418.    
     MULTIPLE LAYERS AND PROPORTIONS :    1, 0.24       2, 0.76
  6095 1251-37-95      37    95.00       2401.    
     MULTIPLE LAYERS AND PROPORTIONS :    1, 0.24       2, 0.76
  6096 1251-42-356     42    356.0       2381.    
     MULTIPLE LAYERS AND PROPORTIONS :    1, 0.24       2, 0.76
  6097 1251-48-334     48    334.0       2380.    
     MULTIPLE LAYERS AND PROPORTIONS :    1, 0.24       2, 0.76
  6098 1251-56-19      56    19.00       2376.    
     MULTIPLE LAYERS AND PROPORTIONS :    1, 0.24       2, 0.76
  6099 1251-60-321     60    321.0       2362.    
     MULTIPLE LAYERS AND PROPORTIONS :    1, 0.24       2, 0.76
  6100 1251-65-298     65    298.0       2356.    
     MULTIPLE LAYERS AND PROPORTIONS :    1, 0.24       2, 0.76
  6101 1251-71-365     71    365.0       2351.    
     MULTIPLE LAYERS AND PROPORTIONS :    1, 0.24       2, 0.76
  6102 1226-48-344     48    344.0       2395.    
  6103 1226-56-19      56    19.00       2392.    
  6104 1226-61-60      61    60.00       2374.    
  6105 1226-66-25      66    25.00       2371.    
  6106 1226-71-42      71    42.00       2363.    
  6107 1195-12-297     12    297.0       2515.    
     MULTIPLE LAYERS AND PROPORTIONS :    1, 0.47       2, 0.53
  6108 1195-17-60      17    60.00       2511.    
     MULTIPLE LAYERS AND PROPORTIONS :    1, 0.47       2, 0.53
  6109 1195-32-69      32    69.00       2493.    
     MULTIPLE LAYERS AND PROPORTIONS :    1, 0.47       2, 0.53
  6110 1195-37-95      37    95.00       2484.    
     MULTIPLE LAYERS AND PROPORTIONS :    1, 0.47       2, 0.53
  6111 1195-48-344     48    344.0       2469.    
  6112 1195-56-19      56    19.00       2423.    
  6113 1195-66-25      66    25.00       2438.    
  6114 1128-70-357     70    357.0       2457.    
  6115 1128-71-365     71    365.0       2458.    
  6116 1110-17-78      17    78.00       2537.    
  6117 1110-32-70      32    70.00       2525.    
  6118 1110-37-1       37   1.0000       2507.    
  6119 1137-16-357     16    357.0       2534.    
  6120 1173-66-5       66    5.000       2554.    
  6121 1173-71-365     71    365.0       2541.    
  6122 1044-16-362     16    362.0       2571.    
  6123 1044-32-69      32    69.00       2561.    
  6124 1044-37-95      37    95.00       2559.    
  6125 1044-42-356     42    356.0       2552.    
  6126 1044-48-344     48    344.0       2546.    
  6127 1044-56-20      56    20.00       2550.    
  6128 1044-61-60      61    60.00       2536.    
  6129 1044-66-25      66    25.00       2521.    
  6130 1050-71-40      71    40.00       2513.    
  6131 1045-31-349     31    349.0       2555.    
  6132 1045-37-26      37    26.00       2550.    
  6133 1045-42-354     42    354.0       2545.    
  6134 1045-48-344     48    344.0       2543.    
  6135 1045-56-17      56    17.00       2550.    
  6136 1045-60-320     60    320.0       2531.    
  6137 1045-65-298     65    298.0       2514.    
  6138 1045-71-365     71    365.0       2501.    
  6139 1046-31-349     31    349.0       2549.    
  6140 1046-42-354     42    354.0       2535.    
  6141 1046-48-344     48    344.0       2536.    
  6142 1046-56-17      56    17.00       2529.    
  6143 1046-60-320     60    320.0       2529.    
  6144 1046-65-298     65    298.0       2512.    
  6145 1046-71-365     71    365.0       2500.    
  6146 1047-31-349     31    349.0       2492.    
  6147 1047-42-354     42    354.0       2469.    
  6148 1047-48-344     48    344.0       2465.    
  6149 1047-56-17      56    17.00       2456.    
  6150 1047-60-320     60    320.0       2443.    
  6151 1047-65-298     65    298.0       2463.    
  6152 1047-71-365     71    365.0       2462.    
  6153 1059-32-70      32    70.00       2541.    
  6154 1059-56-19      56    19.00       2525.    
  6155 1059-61-54      61    54.00       2518.    
  6156 1059-66-32      66    32.00       2504.    
  6157 1070-36-283     36    283.0       2528.    
     MULTIPLE LAYERS AND PROPORTIONS :    1, 0.42       2, 0.58
  6158 1017-17-78      17    78.00       2551.    
  6159 1017-31-349     31    349.0       2541.    
  6160 1017-37-26      37    26.00       2537.    
  6161 1017-42-355     42    355.0       2531.    
  6162 1004-71-365     71    365.0       2502.    
  6163 988-2-60         2    60.00       2547.    
  6164 979-42-355      42    355.0       2538.    
     MULTIPLE LAYERS AND PROPORTIONS :    1, 0.98       2, 0.02
  6165 979-48-334      48    334.0       2535.    
     MULTIPLE LAYERS AND PROPORTIONS :    1, 0.98       2, 0.02
  6166 979-56-18       56    18.00       2530.    
     MULTIPLE LAYERS AND PROPORTIONS :    1, 0.98       2, 0.02
  6167 979-61-53       61    53.00       2526.    
     MULTIPLE LAYERS AND PROPORTIONS :    1, 0.98       2, 0.02
  6168 961-7-85         7    85.00       2553.    
  6169 961-12-60       12    60.00       2552.    
  6170 961-16-362      16    362.0       2552.    
  6171 955-61-53       61    53.00       2538.    
  6172 955-66-31       66    31.00       2528.    
  6173 925-71-365      71    365.0       2505.    
  6174 940-71-365      71    365.0       2503.    
     MULTIPLE LAYERS AND PROPORTIONS :    1, 0.18       2, 0.82
  6175 945-71-365      71    365.0       2504.    
  6176 959-66-49       66    49.00       2516.    
  6177 959-71-365      71    365.0       2504.    
  6178 922-61-42       61    42.00       2543.    
  6179 922-66-54       66    54.00       2523.    
  6180 922-71-365      71    365.0       2511.    
  6181 978-66-59       66    59.00       2532.    
  6182 978-71-365      71    365.0       2523.    
  6183 977-56-17       56    17.00       2602.    
  6184 977-61-53       61    53.00       2594.    
  6185 977-66-32       66    32.00       2580.    
  6186 973-32-70       32    70.00       2598.    
  6187 973-38-60       38    60.00       2590.    
  6188 973-56-17       56    17.00       2607.    
  6189 973-61-53       61    53.00       2599.    
  6190 954-42-354      42    354.0       2599.    
  6191 954-48-335      48    335.0       2608.    
  6192 870-12-60       12    60.00       2625.    
  6193 870-17-78       17    78.00       2621.    
  6194 870-22-89       22    89.00       2618.    
  6195 870-32-70       32    70.00       2613.    
  6196 870-37-1        37   1.0000       2612.    
  6197 870-42-354      42    354.0       2609.    
  6198 869-7-171        7    171.0       2627.    
  6199 869-42-354      42    354.0       2609.    
  6200 869-56-18       56    18.00       2612.    
  6201 869-60-320      60    320.0       2607.    
  6202 869-65-299      65    299.0       2594.    
  6203 869-71-365      71    365.0       2580.    
  6204 915-66-53       66    53.00       2565.    
  6205 915-71-365      71    365.0       2556.    
  6206 912-66-41       66    41.00       2539.    
  6207 912-71-365      71    365.0       2518.    
  6208 875-2-86         2    86.00       2589.    
  6209 879-61-53       61    53.00       2579.    
  6210 879-66-46       66    46.00       2541.    
  6211 879-71-365      71    365.0       2540.    
  6212 881-2-87         2    87.00       2569.    
  6213 891-48-334      48    334.0       2541.    
  6214 891-56-18       56    18.00       2538.    
  6215 891-61-62       61    62.00       2530.    
  6216 891-66-32       66    32.00       2519.    
  6217 891-71-64       71    64.00       2506.    
  6218 876-42-355      42    355.0       2552.    
     MULTIPLE LAYERS AND PROPORTIONS :    1, 0.35       2, 0.65
  6219 876-48-334      48    334.0       2539.    
     MULTIPLE LAYERS AND PROPORTIONS :    1, 0.35       2, 0.65
  6220 876-56-19       56    19.00       2544.    
     MULTIPLE LAYERS AND PROPORTIONS :    1, 0.35       2, 0.65
  6221 876-61-62       61    62.00       2538.    
     MULTIPLE LAYERS AND PROPORTIONS :    1, 0.35       2, 0.65
  6222 876-66-32       66    32.00       2526.    
     MULTIPLE LAYERS AND PROPORTIONS :    1, 0.35       2, 0.65
  6223 866-66-32       66    32.00       2529.    
  6224 866-71-64       71    64.00       2515.    
  6225 873-33-328      33    328.0       2565.    
  6226 918-42-355      42    355.0       2544.    
     MULTIPLE LAYERS AND PROPORTIONS :    1, 0.72       2, 0.28
  6227 906-37-28       37    28.00       2539.    
     MULTIPLE LAYERS AND PROPORTIONS :    1, 0.33       2, 0.42       3, 0.25
  6228 923-42-355      42    355.0       2541.    
  6229 923-48-334      48    334.0       2538.    
  6230 923-56-18       56    18.00       2533.    
  6231 849-42-356      42    356.0       2552.    
  6232 849-56-18       56    18.00       2543.    
  6233 3417-32-69      32    69.00       2618.    
     MULTIPLE LAYERS AND PROPORTIONS :    2, 0.14       3, 0.86
  6234 3417-35-23      35    23.00       2607.    
     MULTIPLE LAYERS AND PROPORTIONS :    2, 0.14       3, 0.86
  6235 3417-42-354     42    354.0       2615.    
     MULTIPLE LAYERS AND PROPORTIONS :    2, 0.14       3, 0.86
  6236 3417-48-335     48    335.0       2618.    
     MULTIPLE LAYERS AND PROPORTIONS :    2, 0.14       3, 0.86
  6237 3417-56-17      56    17.00       2606.    
     MULTIPLE LAYERS AND PROPORTIONS :    2, 0.14       3, 0.86
  6238 3417-61-53      61    53.00       2601.    
     MULTIPLE LAYERS AND PROPORTIONS :    2, 0.14       3, 0.86
  6239 1921-16-362     16    362.0       2735.    
  6240 1229-36-319     36    319.0       2700.    
  6241 1202-42-362     42    362.0       2739.    
  6242 1202-48-336     48    336.0       2748.    
  6243 1164-2-93        2    93.00       2771.    
  6244 1164-16-300     16    300.0       2748.    
  6245 1164-27-12      27    12.00       2758.    
  6246 1164-48-336     48    336.0       2788.    
  6247 1164-56-17      56    17.00       2792.    
  6248 1164-61-60      61    60.00       2780.    
  6249 1125-71-356     71    356.0       2768.    
  6250 1123-71-53      71    53.00       2768.    
  6251 1543-2-90        2    90.00       2922.    
  6252 1543-56-19      56    19.00       2860.    
  6253 1543-66-26      66    26.00       2873.    
  6254 1084-48-338     48    338.0       2852.    
  6255 1067-71-63      71    63.00       2781.    
  6256 1066-71-63      71    63.00       2777.    
  6257 1544-2-88        2    88.00       2878.    
  6258 1544-12-324     12    324.0       2840.    
  6259 1593-61-60      61    60.00       2797.    
  6260 1593-66-26      66    26.00       2774.    
  6261 1069-71-365     71    365.0       2691.    
  6262 1052-56-17      56    17.00       2728.    
  6263 1052-66-26      66    26.00       2705.    
  6264 989-66-20       66    20.00       2704.    
  6265 966-22-60       22    60.00       2729.    
  6266 987-12-324      12    324.0       2803.    
  6267 987-22-33       22    33.00       2814.    
  6268 987-27-12       27    12.00       2810.    
  6269 987-66-20       66    20.00       2825.    
  6270 858-71-63       71    63.00       2702.    
  6271 890-42-362      42    362.0       2717.    
     MULTIPLE LAYERS AND PROPORTIONS :    2, 0.81       3, 0.19
  6272 890-48-338      48    338.0       2730.    
     MULTIPLE LAYERS AND PROPORTIONS :    2, 0.81       3, 0.19
  6273 890-56-19       56    19.00       2730.    
     MULTIPLE LAYERS AND PROPORTIONS :    2, 0.81       3, 0.19
  6274 890-61-60       61    60.00       2726.    
     MULTIPLE LAYERS AND PROPORTIONS :    2, 0.81       3, 0.19
  6275 890-66-20       66    20.00       2715.    
     MULTIPLE LAYERS AND PROPORTIONS :    2, 0.81       3, 0.19
  6276 908-71-365      71    365.0       2689.    
  6277 667-17-5        17    5.000       2504.    
  6278 667-22-1        22   1.0000       2502.    
  6279 667-27-14       27    14.00       2494.    
  6280 667-31-350      31    350.0       2499.    
  6281 667-37-340      37    340.0       2494.    
  6282 667-42-351      42    351.0       2499.    
  6283 667-48-348      48    348.0       2498.    
  6284 652-27-14       27    14.00       2504.    
  6285 652-56-17       56    17.00       2507.    
  6286 652-66-20       66    20.00       2507.    
  6287 614-27-14       27    14.00       2526.    
  6288 613-56-17       56    17.00       2525.    
  6289 641-1-260        1    260.0       2528.    
 Observation within a steady-state time step has been moved to the end of the time step.
  6290 641-26-1        26   1.0000       2539.    
  6291 641-56-18       56    18.00       2538.    
  6292 641-66-31       66    31.00       2538.    
  6293 793-6-289        6    289.0       2382.    
     MULTIPLE LAYERS AND PROPORTIONS :    2, 0.19       3, 0.81
  6294 793-48-348      48    348.0       2377.    
     MULTIPLE LAYERS AND PROPORTIONS :    2, 0.19       3, 0.81
  6295 793-61-25       61    25.00       2381.    
     MULTIPLE LAYERS AND PROPORTIONS :    2, 0.19       3, 0.81
  6296 793-65-357      65    357.0       2380.    
     MULTIPLE LAYERS AND PROPORTIONS :    2, 0.19       3, 0.81
  6297 793-71-365      71    365.0       2382.    
     MULTIPLE LAYERS AND PROPORTIONS :    2, 0.19       3, 0.81
  6298 762-56-18       56    18.00       2383.    
  6299 762-61-61       61    61.00       2384.    
  6300 762-66-34       66    34.00       2383.    
  6301 758-48-348      48    348.0       2397.    
     MULTIPLE LAYERS AND PROPORTIONS :    2, 0.23       3, 0.77
  6302 758-55-353      55    353.0       2400.    
     MULTIPLE LAYERS AND PROPORTIONS :    2, 0.23       3, 0.77
  6303 758-61-25       61    25.00       2401.    
     MULTIPLE LAYERS AND PROPORTIONS :    2, 0.23       3, 0.77
  6304 758-65-362      65    362.0       2400.    
     MULTIPLE LAYERS AND PROPORTIONS :    2, 0.23       3, 0.77
  6305 758-71-365      71    365.0       2401.    
     MULTIPLE LAYERS AND PROPORTIONS :    2, 0.23       3, 0.77
  6306 766-10-104      10    104.0       2408.    
  6307 773-36-156      36    156.0       2387.    
  6308 722-8-276        8    276.0       2447.    
  6309 722-12-360      12    360.0       2448.    
  6310 722-22-3        22    3.000       2447.    
  6311 741-65-362      65    362.0       2421.    
  6312 741-71-365      71    365.0       2422.    
  6313 738-65-362      65    362.0       2422.    
  6314 738-71-365      71    365.0       2422.    
  6315 743-65-362      65    362.0       2421.    
  6316 743-71-365      71    365.0       2421.    
  6317 740-65-362      65    362.0       2421.    
  6318 740-71-365      71    365.0       2421.    
  6319 737-22-3        22    3.000       2416.    
  6320 737-48-348      48    348.0       2416.    
  6321 737-61-25       61    25.00       2418.    
  6322 737-65-362      65    362.0       2418.    
  6323 737-71-365      71    365.0       2418.    
  6324 723-12-180      12    180.0       2416.    
  6325 723-17-9        17    9.000       2414.    
  6326 723-22-1        22   1.0000       2414.    
  6327 723-32-85       32    85.00       2411.    
  6328 748-61-61       61    61.00       2238.    
  6329 748-66-33       66    33.00       2227.    
  6330 714-56-19       56    19.00       2237.    
  6331 714-61-61       61    61.00       2235.    
  6332 715-56-17       56    17.00       2450.    
  6333 715-61-62       61    62.00       2457.    
  6334 715-66-35       66    35.00       2456.    
  6335 713-56-17       56    17.00       2455.    
  6336 713-66-35       66    35.00       2454.    
  6337 702-65-362      65    362.0       2463.    
  6338 702-71-365      71    365.0       2463.    
  6339 700-36-164      36    164.0       2460.    
  6340 700-55-353      55    353.0       2466.    
  6341 700-61-25       61    25.00       2467.    
  6342 700-65-362      65    362.0       2466.    
  6343 700-71-365      71    365.0       2467.    
  6344 671-27-14       27    14.00       2489.    
  6345 671-55-353      55    353.0       2494.    
  6346 671-61-25       61    25.00       2495.    
  6347 656-12-178      12    178.0       2494.    
  6348 656-56-17       56    17.00       2499.    
  6349 656-66-20       66    20.00       2499.    
  6350 656-71-365      71    365.0       2499.    
  6351 655-26-362      26    362.0       2408.    
  6352 655-32-85       32    85.00       2406.    
  6353 655-35-53       35    53.00       2401.    
  6354 655-56-18       56    18.00       2407.    
  6355 689-66-33       66    33.00       2257.    
  6356 688-71-365      71    365.0       2245.    
  6357 682-56-18       56    18.00       2351.    
  6358 636-56-18       56    18.00       2491.    
  6359 636-61-62       61    62.00       2491.    
  6360 636-66-20       66    20.00       2492.    
  6361 648-71-365      71    365.0       2482.    
  6362 601-48-348      48    348.0       2513.    
  6363 601-55-353      55    353.0       2504.    
  6364 601-61-34       61    34.00       2505.    
  6365 601-65-362      65    362.0       2505.    
  6366 601-71-365      71    365.0       2505.    
  6367 632-56-17       56    17.00       2501.    
  6368 632-66-20       66    20.00       2500.    
  6369 602-22-1        22   1.0000       2498.    
  6370 579-56-18       56    18.00       2514.    
  6371 598-42-351      42    351.0       2491.    
  6372 598-48-348      48    348.0       2490.    
  6373 598-56-18       56    18.00       2494.    
  6374 598-60-323      60    323.0       2494.    
  6375 598-65-300      65    300.0       2493.    
  6376 598-71-365      71    365.0       2495.    
  6377 739-37-15       37    15.00       2205.    
  6378 739-48-341      48    341.0       2200.    
  6379 739-55-353      55    353.0       2197.    
  6380 739-61-34       61    34.00       2193.    
  6381 739-65-362      65    362.0       2190.    
  6382 739-71-365      71    365.0       2186.    
  6383 720-12-152      12    152.0       2215.    
  6384 720-17-9        17    9.000       2226.    
  6385 720-21-364      21    364.0       2222.    
  6386 720-66-34       66    34.00       2202.    
  6387 747-48-341      48    341.0       2159.    
  6388 747-55-346      55    346.0       2172.    
  6389 747-61-34       61    34.00       2161.    
  6390 747-65-362      65    362.0       2158.    
  6391 747-71-365      71    365.0       2157.    
  6392 717-27-13       27    13.00       2532.    
  6393 644-42-343      42    343.0       2450.    
  6394 625-42-343      42    343.0       2439.    
     MULTIPLE LAYERS AND PROPORTIONS :    2, 0.23       3, 0.77
  6395 620-42-343      42    343.0       2444.    
  6396 634-35-29       35    29.00       2574.    
  6397 634-42-322      42    322.0       2559.    
  6398 554-42-350      42    350.0       2595.    
  6399 561-42-349      42    349.0       2661.    
  6400 535-42-350      42    350.0       2638.    
  6401 577-22-34       22    34.00       2586.    
  6402 577-27-59       27    59.00       2549.    
  6403 577-31-339      31    339.0       2500.    
  6404 577-37-1        37   1.0000       2481.    
  6405 577-42-343      42    343.0       2452.    
  6406 577-48-343      48    343.0       2460.    
  6407 577-56-16       56    16.00       2425.    
  6408 577-60-322      60    322.0       2411.    
  6409 577-65-302      65    302.0       2452.    
  6410 577-71-365      71    365.0       2473.    
  6411 581-1-365        1    365.0       2613.    
 Observation within a steady-state time step has been moved to the end of the time step.
  6412 582-42-343      42    343.0       2423.    
     MULTIPLE LAYERS AND PROPORTIONS :    2, 0.16       3, 0.84
  6413 582-56-16       56    16.00       2421.    
     MULTIPLE LAYERS AND PROPORTIONS :    2, 0.16       3, 0.84
  6414 586-27-56       27    56.00       2560.    
     MULTIPLE LAYERS AND PROPORTIONS :    2, 0.04       3, 0.96
  6415 586-37-316      37    316.0       2455.    
     MULTIPLE LAYERS AND PROPORTIONS :    2, 0.04       3, 0.96
  6416 586-42-343      42    343.0       2436.    
     MULTIPLE LAYERS AND PROPORTIONS :    2, 0.04       3, 0.96
  6417 586-56-16       56    16.00       2414.    
     MULTIPLE LAYERS AND PROPORTIONS :    2, 0.04       3, 0.96
  6418 586-61-55       61    55.00       2392.    
     MULTIPLE LAYERS AND PROPORTIONS :    2, 0.04       3, 0.96
  6419 586-66-46       66    46.00       2450.    
     MULTIPLE LAYERS AND PROPORTIONS :    2, 0.04       3, 0.96
  6420 553-22-39       22    39.00       2593.    
     MULTIPLE LAYERS AND PROPORTIONS :    2, 0.66       3, 0.34
  6421 553-26-299      26    299.0       2554.    
     MULTIPLE LAYERS AND PROPORTIONS :    2, 0.66       3, 0.34
  6422 553-31-348      31    348.0       2505.    
     MULTIPLE LAYERS AND PROPORTIONS :    2, 0.66       3, 0.34
  6423 553-36-21       36    21.00       2455.    
     MULTIPLE LAYERS AND PROPORTIONS :    2, 0.66       3, 0.34
  6424 584-22-44       22    44.00       2584.    
  6425 584-27-56       27    56.00       2547.    
  6426 584-31-339      31    339.0       2495.    
  6427 584-37-1        37   1.0000       2474.    
  6428 584-42-343      42    343.0       2433.    
  6429 584-56-16       56    16.00       2410.    
  6430 584-61-55       61    55.00       2391.    
  6431 584-66-46       66    46.00       2446.    
  6432 585-22-44       22    44.00       2583.    
  6433 585-27-56       27    56.00       2547.    
  6434 585-31-339      31    339.0       2498.    
  6435 585-37-1        37   1.0000       2467.    
  6436 585-42-343      42    343.0       2437.    
  6437 585-56-16       56    16.00       2417.    
  6438 585-61-55       61    55.00       2400.    
  6439 585-66-46       66    46.00       2434.    
  6440 557-38-1        38   1.0000       2450.    
     MULTIPLE LAYERS AND PROPORTIONS :    2, 0.17       3, 0.83
  6441 557-42-343      42    343.0       2435.    
     MULTIPLE LAYERS AND PROPORTIONS :    2, 0.17       3, 0.83
  6442 557-66-46       66    46.00       2446.    
     MULTIPLE LAYERS AND PROPORTIONS :    2, 0.17       3, 0.83
  6443 548-1-365        1    365.0       2625.    
 Observation within a steady-state time step has been moved to the end of the time step.
  6444 575-17-55       17    55.00       2606.    
  6445 575-22-44       22    44.00       2585.    
  6446 575-26-299      26    299.0       2563.    
  6447 563-17-55       17    55.00       2608.    
     MULTIPLE LAYERS AND PROPORTIONS :    2, 0.17       3, 0.83
  6448 563-22-44       22    44.00       2582.    
     MULTIPLE LAYERS AND PROPORTIONS :    2, 0.17       3, 0.83
  6449 563-66-46       66    46.00       2450.    
     MULTIPLE LAYERS AND PROPORTIONS :    2, 0.17       3, 0.83
  6450 556-26-299      26    299.0       2555.    
  6451 556-31-335      31    335.0       2494.    
  6452 556-36-317      36    317.0       2441.    
  6453 556-56-10       56   10.000       2417.    
  6454 556-61-56       61    56.00       2388.    
  6455 556-66-34       66    34.00       2437.    
  6456 558-26-299      26    299.0       2562.    
     MULTIPLE LAYERS AND PROPORTIONS :    2, 0.08       3, 0.92
  6457 558-31-317      31    317.0       2494.    
     MULTIPLE LAYERS AND PROPORTIONS :    2, 0.08       3, 0.92
  6458 558-38-319      38    319.0       2491.    
     MULTIPLE LAYERS AND PROPORTIONS :    2, 0.08       3, 0.92
  6459 572-1-365        1    365.0       2603.    
 Observation within a steady-state time step has been moved to the end of the time step.
  6460 543-1-365        1    365.0       2605.    
 Observation within a steady-state time step has been moved to the end of the time step.
  6461 529-48-336      48    336.0       2480.    
     MULTIPLE LAYERS AND PROPORTIONS :    2, 0.04       3, 0.96
  6462 529-56-10       56   10.000       2437.    
     MULTIPLE LAYERS AND PROPORTIONS :    2, 0.04       3, 0.96
  6463 529-61-56       61    56.00       2410.    
     MULTIPLE LAYERS AND PROPORTIONS :    2, 0.04       3, 0.96
  6464 529-66-34       66    34.00       2445.    
     MULTIPLE LAYERS AND PROPORTIONS :    2, 0.04       3, 0.96
  6465 798-1-365        1    365.0       2539.    
 Observation within a steady-state time step has been moved to the end of the time step.
  6466 794-1-77         1    77.00       2534.    
 Observation within a steady-state time step has been moved to the end of the time step.
  6467 772-3-59         3    59.00       2562.    
  6468 792-1-365        1    365.0       2540.    
 Observation within a steady-state time step has been moved to the end of the time step.
  6469 790-1-274        1    274.0       2535.    
 Observation within a steady-state time step has been moved to the end of the time step.
  6470 790-6-286        6    286.0       2531.    
  6471 790-11-258      11    258.0       2529.    
  6472 790-17-4        17    4.000       2524.    
  6473 790-22-34       22    34.00       2517.    
  6474 790-27-53       27    53.00       2506.    
  6475 790-31-335      31    335.0       2490.    
  6476 790-37-32       37    32.00       2471.    
  6477 790-42-351      42    351.0       2453.    
  6478 790-48-337      48    337.0       2445.    
  6479 790-61-54       61    54.00       2443.    
  6480 783-1-274        1    274.0       2535.    
 Observation within a steady-state time step has been moved to the end of the time step.
  6481 783-6-288        6    288.0       2532.    
  6482 783-11-258      11    258.0       2528.    
  6483 783-17-4        17    4.000       2528.    
  6484 783-17-47       17    47.00       2528.    
  6485 783-22-34       22    34.00       2521.    
  6486 783-26-280      26    280.0       2507.    
  6487 783-31-335      31    335.0       2498.    
  6488 783-42-351      42    351.0       2458.    
  6489 783-61-54       61    54.00       2445.    
  6490 799-1-365        1    365.0       2542.    
 Observation within a steady-state time step has been moved to the end of the time step.
  6491 774-65-357      65    357.0       2494.    
  6492 774-71-362      71    362.0       2519.    
  6493 751-1-365        1    365.0       2570.    
 Observation within a steady-state time step has been moved to the end of the time step.
  6494 746-22-38       22    38.00       2536.    
     MULTIPLE LAYERS AND PROPORTIONS :    1, 0.47       2, 0.53
  6495 746-26-280      26    280.0       2500.    
     MULTIPLE LAYERS AND PROPORTIONS :    1, 0.47       2, 0.53
  6496 746-32-41       32    41.00       2498.    
     MULTIPLE LAYERS AND PROPORTIONS :    1, 0.47       2, 0.53
  6497 746-48-362      48    362.0       2477.    
     MULTIPLE LAYERS AND PROPORTIONS :    1, 0.47       2, 0.53
  6498 746-56-9        56    9.000       2486.    
     MULTIPLE LAYERS AND PROPORTIONS :    1, 0.47       2, 0.53
  6499 746-61-47       61    47.00       2486.    
     MULTIPLE LAYERS AND PROPORTIONS :    1, 0.47       2, 0.53
  6500 746-65-357      65    357.0       2520.    
     MULTIPLE LAYERS AND PROPORTIONS :    1, 0.47       2, 0.53
  6501 746-71-362      71    362.0       2538.    
     MULTIPLE LAYERS AND PROPORTIONS :    1, 0.47       2, 0.53
  6502 745-1-55         1    55.00       2556.    
 Observation within a steady-state time step has been moved to the end of the time step.
  6503 754-48-342      48    342.0       2454.    
  6504 754-56-18       56    18.00       2468.    
  6505 754-61-53       61    53.00       2463.    
  6506 754-66-32       66    32.00       2491.    
  6507 721-12-313      12    313.0       2560.    
  6508 721-17-52       17    52.00       2559.    
  6509 721-22-38       22    38.00       2545.    
  6510 721-26-287      26    287.0       2529.    
  6511 721-31-335      31    335.0       2519.    
  6512 721-36-318      36    318.0       2501.    
  6513 721-42-350      42    350.0       2487.    
  6514 721-48-343      48    343.0       2496.    
  6515 721-56-19       56    19.00       2501.    
  6516 721-61-55       61    55.00       2517.    
  6517 721-66-46       66    46.00       2551.    
  6518 729-43-4        43    4.000       2481.    
     MULTIPLE LAYERS AND PROPORTIONS :    1, 0.47       2, 0.53
  6519 729-48-362      48    362.0       2483.    
     MULTIPLE LAYERS AND PROPORTIONS :    1, 0.47       2, 0.53
  6520 729-56-9        56    9.000       2494.    
     MULTIPLE LAYERS AND PROPORTIONS :    1, 0.47       2, 0.53
  6521 729-66-1        66   1.0000       2530.    
     MULTIPLE LAYERS AND PROPORTIONS :    1, 0.47       2, 0.53
  6522 729-71-362      71    362.0       2550.    
     MULTIPLE LAYERS AND PROPORTIONS :    1, 0.47       2, 0.53
  6523 706-17-52       17    52.00       2567.    
     MULTIPLE LAYERS AND PROPORTIONS :    1, 0.87       2, 0.13
  6524 706-22-37       22    37.00       2551.    
     MULTIPLE LAYERS AND PROPORTIONS :    1, 0.87       2, 0.13
  6525 706-27-62       27    62.00       2534.    
     MULTIPLE LAYERS AND PROPORTIONS :    1, 0.87       2, 0.13
  6526 706-31-335      31    335.0       2512.    
     MULTIPLE LAYERS AND PROPORTIONS :    1, 0.87       2, 0.13
  6527 706-43-4        43    4.000       2494.    
     MULTIPLE LAYERS AND PROPORTIONS :    1, 0.87       2, 0.13
  6528 706-48-362      48    362.0       2496.    
     MULTIPLE LAYERS AND PROPORTIONS :    1, 0.87       2, 0.13
  6529 706-56-9        56    9.000       2500.    
     MULTIPLE LAYERS AND PROPORTIONS :    1, 0.87       2, 0.13
  6530 706-61-47       61    47.00       2502.    
     MULTIPLE LAYERS AND PROPORTIONS :    1, 0.87       2, 0.13
  6531 706-65-357      65    357.0       2537.    
     MULTIPLE LAYERS AND PROPORTIONS :    1, 0.87       2, 0.13
  6532 706-71-362      71    362.0       2557.    
     MULTIPLE LAYERS AND PROPORTIONS :    1, 0.87       2, 0.13
  6533 694-17-52       17    52.00       2576.    
  6534 694-22-38       22    38.00       2562.    
  6535 694-26-285      26    285.0       2534.    
  6536 694-31-344      31    344.0       2513.    
  6537 694-36-354      36    354.0       2476.    
  6538 694-43-4        43    4.000       2493.    
  6539 694-48-362      48    362.0       2498.    
  6540 694-56-9        56    9.000       2505.    
  6541 694-61-47       61    47.00       2504.    
  6542 694-65-357      65    357.0       2533.    
  6543 694-71-362      71    362.0       2554.    
  6544 716-1-365        1    365.0       2575.    
 Observation within a steady-state time step has been moved to the end of the time step.
  6545 719-12-121      12    121.0       2562.    
     MULTIPLE LAYERS AND PROPORTIONS :    1, 0.93       2, 0.07
  6546 708-8-302        8    302.0       2566.    
     MULTIPLE LAYERS AND PROPORTIONS :    1, 0.83       2, 0.17
  6547 708-12-64       12    64.00       2563.    
     MULTIPLE LAYERS AND PROPORTIONS :    1, 0.83       2, 0.17
  6548 708-17-3        17    3.000       2561.    
     MULTIPLE LAYERS AND PROPORTIONS :    1, 0.83       2, 0.17
  6549 708-22-38       22    38.00       2547.    
     MULTIPLE LAYERS AND PROPORTIONS :    1, 0.83       2, 0.17
  6550 708-26-287      26    287.0       2532.    
     MULTIPLE LAYERS AND PROPORTIONS :    1, 0.83       2, 0.17
  6551 708-31-335      31    335.0       2523.    
     MULTIPLE LAYERS AND PROPORTIONS :    1, 0.83       2, 0.17
  6552 708-42-350      42    350.0       2497.    
     MULTIPLE LAYERS AND PROPORTIONS :    1, 0.83       2, 0.17
  6553 708-48-343      48    343.0       2502.    
     MULTIPLE LAYERS AND PROPORTIONS :    1, 0.83       2, 0.17
  6554 685-1-365        1    365.0       2591.    
 Observation within a steady-state time step has been moved to the end of the time step.
  6555 674-22-38       22    38.00       2556.    
     MULTIPLE LAYERS AND PROPORTIONS :    1, 0.84       2, 0.16
  6556 674-31-344      31    344.0       2533.    
     MULTIPLE LAYERS AND PROPORTIONS :    1, 0.84       2, 0.16
  6557 674-42-350      42    350.0       2506.    
     MULTIPLE LAYERS AND PROPORTIONS :    1, 0.84       2, 0.16
  6558 674-48-343      48    343.0       2513.    
     MULTIPLE LAYERS AND PROPORTIONS :    1, 0.84       2, 0.16
  6559 674-56-19       56    19.00       2518.    
     MULTIPLE LAYERS AND PROPORTIONS :    1, 0.84       2, 0.16
  6560 674-61-60       61    60.00       2556.    
     MULTIPLE LAYERS AND PROPORTIONS :    1, 0.84       2, 0.16
  6561 674-66-48       66    48.00       2580.    
     MULTIPLE LAYERS AND PROPORTIONS :    1, 0.84       2, 0.16
  6562 676-27-10       27   10.000       2543.    
     MULTIPLE LAYERS AND PROPORTIONS :    1, 0.54       2, 0.46
  6563 687-17-3        17    3.000       2567.    
     MULTIPLE LAYERS AND PROPORTIONS :    1, 0.69       2, 0.31
  6564 687-22-38       22    38.00       2551.    
     MULTIPLE LAYERS AND PROPORTIONS :    1, 0.69       2, 0.31
  6565 687-27-11       27    11.00       2542.    
     MULTIPLE LAYERS AND PROPORTIONS :    1, 0.69       2, 0.31
  6566 687-42-350      42    350.0       2486.    
     MULTIPLE LAYERS AND PROPORTIONS :    1, 0.69       2, 0.31
  6567 687-48-343      48    343.0       2502.    
     MULTIPLE LAYERS AND PROPORTIONS :    1, 0.69       2, 0.31
  6568 687-56-19       56    19.00       2504.    
     MULTIPLE LAYERS AND PROPORTIONS :    1, 0.69       2, 0.31
  6569 687-61-55       61    55.00       2542.    
     MULTIPLE LAYERS AND PROPORTIONS :    1, 0.69       2, 0.31
  6570 687-66-46       66    46.00       2569.    
     MULTIPLE LAYERS AND PROPORTIONS :    1, 0.69       2, 0.31
  6571 686-56-19       56    19.00       2495.    
     MULTIPLE LAYERS AND PROPORTIONS :    1, 0.21       2, 0.32       3, 0.47
  6572 686-66-46       66    46.00       2558.    
     MULTIPLE LAYERS AND PROPORTIONS :    1, 0.21       2, 0.32       3, 0.47
  6573 677-17-53       17    53.00       2576.    
  6574 677-22-38       22    38.00       2559.    
  6575 677-26-299      26    299.0       2550.    
  6576 677-31-337      31    337.0       2534.    
  6577 677-37-336      37    336.0       2522.    
  6578 677-42-350      42    350.0       2496.    
  6579 677-48-343      48    343.0       2506.    
  6580 677-56-19       56    19.00       2507.    
  6581 677-61-55       61    55.00       2540.    
  6582 677-66-46       66    46.00       2576.    
  6583 675-5-102        5    102.0       2577.    
  6584 675-11-305      11    305.0       2574.    
  6585 675-27-11       27    11.00       2549.    
  6586 665-17-53       17    53.00       2574.    
  6587 665-22-38       22    38.00       2554.    
  6588 665-27-11       27    11.00       2551.    
  6589 665-36-357      36    357.0       2509.    
  6590 665-42-350      42    350.0       2499.    
  6591 665-56-19       56    19.00       2510.    
  6592 665-61-55       61    55.00       2552.    
  6593 665-66-46       66    46.00       2586.    
  6594 657-48-343      48    343.0       2507.    
  6595 649-3-294        3    294.0       2582.    
  6596 649-6-290        6    290.0       2584.    
  6597 649-11-307      11    307.0       2579.    
  6598 649-17-3        17    3.000       2574.    
  6599 649-22-38       22    38.00       2549.    
  6600 649-26-287      26    287.0       2552.    
  6601 649-31-335      31    335.0       2532.    
  6602 649-38-60       38    60.00       2521.    
  6603 649-42-350      42    350.0       2502.    
  6604 649-48-343      48    343.0       2512.    
  6605 649-56-19       56    19.00       2516.    
  6606 649-61-55       61    55.00       2570.    
  6607 651-3-294        3    294.0       2582.    
  6608 651-6-290        6    290.0       2584.    
  6609 651-11-307      11    307.0       2579.    
  6610 651-17-52       17    52.00       2575.    
  6611 651-27-11       27    11.00       2555.    
  6612 651-42-350      42    350.0       2502.    
  6613 651-48-343      48    343.0       2513.    
  6614 651-56-19       56    19.00       2517.    
  6615 651-61-60       61    60.00       2571.    
  6616 651-66-46       66    46.00       2592.    
  6617 679-17-52       17    52.00       2569.    
     MULTIPLE LAYERS AND PROPORTIONS :    1, 0.95       2, 0.05
  6618 679-22-37       22    37.00       2550.    
     MULTIPLE LAYERS AND PROPORTIONS :    1, 0.95       2, 0.05
  6619 679-26-336      26    336.0       2534.    
     MULTIPLE LAYERS AND PROPORTIONS :    1, 0.95       2, 0.05
  6620 679-48-362      48    362.0       2499.    
     MULTIPLE LAYERS AND PROPORTIONS :    1, 0.95       2, 0.05
  6621 679-56-9        56    9.000       2503.    
     MULTIPLE LAYERS AND PROPORTIONS :    1, 0.95       2, 0.05
  6622 679-61-47       61    47.00       2506.    
     MULTIPLE LAYERS AND PROPORTIONS :    1, 0.95       2, 0.05
  6623 679-65-357      65    357.0       2539.    
     MULTIPLE LAYERS AND PROPORTIONS :    1, 0.95       2, 0.05
  6624 679-71-362      71    362.0       2559.    
     MULTIPLE LAYERS AND PROPORTIONS :    1, 0.95       2, 0.05
  6625 680-17-52       17    52.00       2574.    
     MULTIPLE LAYERS AND PROPORTIONS :    1, 0.52       2, 0.48
  6626 680-22-82       22    82.00       2554.    
     MULTIPLE LAYERS AND PROPORTIONS :    1, 0.52       2, 0.48
  6627 680-27-62       27    62.00       2543.    
     MULTIPLE LAYERS AND PROPORTIONS :    1, 0.52       2, 0.48
  6628 680-31-335      31    335.0       2516.    
     MULTIPLE LAYERS AND PROPORTIONS :    1, 0.52       2, 0.48
  6629 680-39-60       39    60.00       2491.    
     MULTIPLE LAYERS AND PROPORTIONS :    1, 0.52       2, 0.48
  6630 680-43-4        43    4.000       2504.    
     MULTIPLE LAYERS AND PROPORTIONS :    1, 0.52       2, 0.48
  6631 680-48-362      48    362.0       2506.    
     MULTIPLE LAYERS AND PROPORTIONS :    1, 0.52       2, 0.48
  6632 680-56-9        56    9.000       2508.    
     MULTIPLE LAYERS AND PROPORTIONS :    1, 0.52       2, 0.48
  6633 680-61-47       61    47.00       2508.    
     MULTIPLE LAYERS AND PROPORTIONS :    1, 0.52       2, 0.48
  6634 680-65-357      65    357.0       2540.    
     MULTIPLE LAYERS AND PROPORTIONS :    1, 0.52       2, 0.48
  6635 680-71-362      71    362.0       2560.    
     MULTIPLE LAYERS AND PROPORTIONS :    1, 0.52       2, 0.48
  6636 684-17-52       17    52.00       2569.    
     MULTIPLE LAYERS AND PROPORTIONS :    1, 0.73       2, 0.27
  6637 684-22-37       22    37.00       2552.    
     MULTIPLE LAYERS AND PROPORTIONS :    1, 0.73       2, 0.27
  6638 684-26-349      26    349.0       2529.    
     MULTIPLE LAYERS AND PROPORTIONS :    1, 0.73       2, 0.27
  6639 684-31-335      31    335.0       2515.    
     MULTIPLE LAYERS AND PROPORTIONS :    1, 0.73       2, 0.27
  6640 684-48-362      48    362.0       2497.    
     MULTIPLE LAYERS AND PROPORTIONS :    1, 0.73       2, 0.27
  6641 684-56-9        56    9.000       2504.    
     MULTIPLE LAYERS AND PROPORTIONS :    1, 0.73       2, 0.27
  6642 684-66-1        66   1.0000       2542.    
     MULTIPLE LAYERS AND PROPORTIONS :    1, 0.73       2, 0.27
  6643 684-71-362      71    362.0       2561.    
     MULTIPLE LAYERS AND PROPORTIONS :    1, 0.73       2, 0.27
  6644 664-1-365        1    365.0       2593.    
 Observation within a steady-state time step has been moved to the end of the time step.
  6645 654-12-67       12    67.00       2578.    
     MULTIPLE LAYERS AND PROPORTIONS :    1, 0.83       2, 0.17
  6646 654-17-52       17    52.00       2574.    
     MULTIPLE LAYERS AND PROPORTIONS :    1, 0.83       2, 0.17
  6647 654-22-37       22    37.00       2548.    
     MULTIPLE LAYERS AND PROPORTIONS :    1, 0.83       2, 0.17
  6648 654-26-285      26    285.0       2532.    
     MULTIPLE LAYERS AND PROPORTIONS :    1, 0.83       2, 0.17
  6649 654-31-335      31    335.0       2524.    
     MULTIPLE LAYERS AND PROPORTIONS :    1, 0.83       2, 0.17
  6650 654-38-32       38    32.00       2520.    
     MULTIPLE LAYERS AND PROPORTIONS :    1, 0.83       2, 0.17
  6651 654-42-349      42    349.0       2476.    
     MULTIPLE LAYERS AND PROPORTIONS :    1, 0.83       2, 0.17
  6652 654-48-343      48    343.0       2493.    
     MULTIPLE LAYERS AND PROPORTIONS :    1, 0.83       2, 0.17
  6653 654-56-19       56    19.00       2506.    
     MULTIPLE LAYERS AND PROPORTIONS :    1, 0.83       2, 0.17
  6654 654-61-60       61    60.00       2512.    
     MULTIPLE LAYERS AND PROPORTIONS :    1, 0.83       2, 0.17
  6655 654-66-49       66    49.00       2540.    
     MULTIPLE LAYERS AND PROPORTIONS :    1, 0.83       2, 0.17
  6656 658-32-41       32    41.00       2519.    
  6657 658-36-357      36    357.0       2482.    
  6658 658-43-4        43    4.000       2484.    
  6659 658-48-362      48    362.0       2493.    
  6660 658-56-9        56    9.000       2515.    
  6661 658-61-47       61    47.00       2509.    
  6662 658-65-357      65    357.0       2542.    
  6663 658-71-362      71    362.0       2564.    
  6664 673-35-360      35    360.0       2507.    
     MULTIPLE LAYERS AND PROPORTIONS :    1, 0.32       2, 0.68
  6665 673-56-9        56    9.000       2508.    
     MULTIPLE LAYERS AND PROPORTIONS :    1, 0.32       2, 0.68
  6666 673-61-47       61    47.00       2504.    
     MULTIPLE LAYERS AND PROPORTIONS :    1, 0.32       2, 0.68
  6667 673-65-357      65    357.0       2527.    
     MULTIPLE LAYERS AND PROPORTIONS :    1, 0.32       2, 0.68
  6668 673-70-334      70    334.0       2545.    
     MULTIPLE LAYERS AND PROPORTIONS :    1, 0.32       2, 0.68
  6669 673-71-362      71    362.0       2550.    
     MULTIPLE LAYERS AND PROPORTIONS :    1, 0.32       2, 0.68
  6670 653-32-41       32    41.00       2506.    
     MULTIPLE LAYERS AND PROPORTIONS :    1, 0.42       2, 0.58
  6671 653-39-32       39    32.00       2513.    
     MULTIPLE LAYERS AND PROPORTIONS :    1, 0.42       2, 0.58
  6672 653-43-4        43    4.000       2493.    
     MULTIPLE LAYERS AND PROPORTIONS :    1, 0.42       2, 0.58
  6673 653-48-362      48    362.0       2495.    
     MULTIPLE LAYERS AND PROPORTIONS :    1, 0.42       2, 0.58
  6674 653-56-9        56    9.000       2514.    
     MULTIPLE LAYERS AND PROPORTIONS :    1, 0.42       2, 0.58
  6675 653-61-47       61    47.00       2500.    
     MULTIPLE LAYERS AND PROPORTIONS :    1, 0.42       2, 0.58
  6676 653-65-357      65    357.0       2517.    
     MULTIPLE LAYERS AND PROPORTIONS :    1, 0.42       2, 0.58
  6677 653-71-362      71    362.0       2552.    
     MULTIPLE LAYERS AND PROPORTIONS :    1, 0.42       2, 0.58
  6678 642-36-352      36    352.0       2607.    
  6679 642-43-4        43    4.000       2588.    
  6680 642-48-362      48    362.0       2581.    
  6681 642-56-9        56    9.000       2580.    
  6682 642-61-47       61    47.00       2572.    
  6683 642-65-357      65    357.0       2568.    
  6684 642-71-362      71    362.0       2571.    
  6685 637-26-295      26    295.0       2608.    
     MULTIPLE LAYERS AND PROPORTIONS :    2, 0.23       3, 0.77
  6686 637-31-349      31    349.0       2611.    
     MULTIPLE LAYERS AND PROPORTIONS :    2, 0.23       3, 0.77
  6687 637-36-352      36    352.0       2607.    
     MULTIPLE LAYERS AND PROPORTIONS :    2, 0.23       3, 0.77
  6688 637-43-4        43    4.000       2578.    
     MULTIPLE LAYERS AND PROPORTIONS :    2, 0.23       3, 0.77
  6689 637-48-362      48    362.0       2568.    
     MULTIPLE LAYERS AND PROPORTIONS :    2, 0.23       3, 0.77
  6690 637-56-9        56    9.000       2569.    
     MULTIPLE LAYERS AND PROPORTIONS :    2, 0.23       3, 0.77
  6691 637-61-47       61    47.00       2559.    
     MULTIPLE LAYERS AND PROPORTIONS :    2, 0.23       3, 0.77
  6692 637-65-357      65    357.0       2553.    
     MULTIPLE LAYERS AND PROPORTIONS :    2, 0.23       3, 0.77
  6693 637-71-362      71    362.0       2566.    
     MULTIPLE LAYERS AND PROPORTIONS :    2, 0.23       3, 0.77
  6694 624-7-99         7    99.00       2610.    
  6695 624-12-103      12    103.0       2609.    
  6696 624-17-52       17    52.00       2607.    
  6697 624-22-39       22    39.00       2605.    
  6698 624-27-5        27    5.000       2602.    
  6699 624-32-1        32   1.0000       2598.    
  6700 595-37-32       37    32.00       2599.    
     MULTIPLE LAYERS AND PROPORTIONS :    1, 0.25       2, 0.25       3, 0.50
  6701 595-43-4        43    4.000       2582.    
     MULTIPLE LAYERS AND PROPORTIONS :    1, 0.25       2, 0.25       3, 0.50
  6702 595-48-362      48    362.0       2558.    
     MULTIPLE LAYERS AND PROPORTIONS :    1, 0.25       2, 0.25       3, 0.50
  6703 595-56-9        56    9.000       2570.    
     MULTIPLE LAYERS AND PROPORTIONS :    1, 0.25       2, 0.25       3, 0.50
  6704 595-61-47       61    47.00       2560.    
     MULTIPLE LAYERS AND PROPORTIONS :    2, 0.50       3, 0.50
  6705 595-65-357      65    357.0       2558.    
     MULTIPLE LAYERS AND PROPORTIONS :    1, 0.25       2, 0.25       3, 0.50
  6706 595-71-362      71    362.0       2564.    
     MULTIPLE LAYERS AND PROPORTIONS :    1, 0.25       2, 0.25       3, 0.50
  6707 604-31-323      31    323.0       2609.    
     MULTIPLE LAYERS AND PROPORTIONS :    2, 0.71       3, 0.29
  6708 604-37-32       37    32.00       2621.    
     MULTIPLE LAYERS AND PROPORTIONS :    2, 0.71       3, 0.29
  6709 604-43-4        43    4.000       2602.    
     MULTIPLE LAYERS AND PROPORTIONS :    2, 0.71       3, 0.29
  6710 604-48-362      48    362.0       2594.    
     MULTIPLE LAYERS AND PROPORTIONS :    2, 0.71       3, 0.29
  6711 604-56-9        56    9.000       2588.    
     MULTIPLE LAYERS AND PROPORTIONS :    2, 0.71       3, 0.29
  6712 604-61-47       61    47.00       2574.    
     MULTIPLE LAYERS AND PROPORTIONS :    2, 0.71       3, 0.29
  6713 604-65-357      65    357.0       2571.    
     MULTIPLE LAYERS AND PROPORTIONS :    2, 0.71       3, 0.29
  6714 604-71-362      71    362.0       2569.    
     MULTIPLE LAYERS AND PROPORTIONS :    2, 0.71       3, 0.29
  6715 596-36-352      36    352.0       2575.    
     MULTIPLE LAYERS AND PROPORTIONS :    2, 0.35       3, 0.65
  6716 596-43-4        43    4.000       2524.    
     MULTIPLE LAYERS AND PROPORTIONS :    2, 0.35       3, 0.65
  6717 596-48-362      48    362.0       2513.    
     MULTIPLE LAYERS AND PROPORTIONS :    2, 0.35       3, 0.65
  6718 596-56-9        56    9.000       2539.    
     MULTIPLE LAYERS AND PROPORTIONS :    2, 0.35       3, 0.65
  6719 596-61-47       61    47.00       2514.    
     MULTIPLE LAYERS AND PROPORTIONS :    2, 0.35       3, 0.65
  6720 596-65-357      65    357.0       2515.    
     MULTIPLE LAYERS AND PROPORTIONS :    2, 0.35       3, 0.65
  6721 596-71-362      71    362.0       2556.    
     MULTIPLE LAYERS AND PROPORTIONS :    2, 0.35       3, 0.65
  6722 609-43-4        43    4.000       2521.    
     MULTIPLE LAYERS AND PROPORTIONS :    1, 0.39       2, 0.61
  6723 609-56-9        56    9.000       2525.    
     MULTIPLE LAYERS AND PROPORTIONS :    1, 0.39       2, 0.61
  6724 609-61-47       61    47.00       2518.    
     MULTIPLE LAYERS AND PROPORTIONS :    1, 0.39       2, 0.61
  6725 609-65-357      65    357.0       2540.    
     MULTIPLE LAYERS AND PROPORTIONS :    1, 0.39       2, 0.61
  6726 609-71-362      71    362.0       2563.    
     MULTIPLE LAYERS AND PROPORTIONS :    1, 0.39       2, 0.61
  6727 639-27-10       27   10.000       2551.    
  6728 639-66-49       66    49.00       2549.    
  6729 626-27-10       27   10.000       2555.    
  6730 626-42-349      42    349.0       2510.    
  6731 626-48-343      48    343.0       2512.    
  6732 626-56-19       56    19.00       2525.    
  6733 626-61-60       61    60.00       2519.    
  6734 626-66-49       66    49.00       2548.    
  6735 635-17-52       17    52.00       2587.    
  6736 635-22-38       22    38.00       2568.    
  6737 635-26-280      26    280.0       2551.    
  6738 635-42-349      42    349.0       2495.    
  6739 635-48-343      48    343.0       2520.    
  6740 635-56-19       56    19.00       2524.    
  6741 635-61-60       61    60.00       2522.    
  6742 635-66-49       66    49.00       2547.    
  6743 629-11-307      11    307.0       2590.    
  6744 629-16-364      16    364.0       2586.    
  6745 629-21-332      21    332.0       2577.    
  6746 629-26-287      26    287.0       2575.    
  6747 629-31-335      31    335.0       2555.    
  6748 629-37-32       37    32.00       2545.    
  6749 629-48-343      48    343.0       2540.    
  6750 629-56-23       56    23.00       2541.    
  6751 629-61-60       61    60.00       2574.    
  6752 629-66-46       66    46.00       2595.    
  6753 628-11-307      11    307.0       2587.    
  6754 628-17-52       17    52.00       2582.    
  6755 628-36-356      36    356.0       2511.    
  6756 628-42-349      42    349.0       2508.    
  6757 628-48-343      48    343.0       2521.    
  6758 628-56-19       56    19.00       2531.    
  6759 628-61-60       61    60.00       2532.    
  6760 628-66-46       66    46.00       2549.    
  6761 630-12-310      12    310.0       2581.    
     MULTIPLE LAYERS AND PROPORTIONS :    1, 0.66       2, 0.34
  6762 630-17-3        17    3.000       2586.    
     MULTIPLE LAYERS AND PROPORTIONS :    1, 0.66       2, 0.34
  6763 630-22-38       22    38.00       2558.    
     MULTIPLE LAYERS AND PROPORTIONS :    1, 0.66       2, 0.34
  6764 630-27-11       27    11.00       2563.    
     MULTIPLE LAYERS AND PROPORTIONS :    1, 0.66       2, 0.34
  6765 630-36-357      36    357.0       2528.    
     MULTIPLE LAYERS AND PROPORTIONS :    1, 0.66       2, 0.34
  6766 630-42-350      42    350.0       2531.    
     MULTIPLE LAYERS AND PROPORTIONS :    1, 0.66       2, 0.34
  6767 630-48-343      48    343.0       2536.    
     MULTIPLE LAYERS AND PROPORTIONS :    1, 0.66       2, 0.34
  6768 630-56-19       56    19.00       2538.    
     MULTIPLE LAYERS AND PROPORTIONS :    1, 0.66       2, 0.34
  6769 630-61-60       61    60.00       2582.    
     MULTIPLE LAYERS AND PROPORTIONS :    1, 0.66       2, 0.34
  6770 630-66-46       66    46.00       2596.    
     MULTIPLE LAYERS AND PROPORTIONS :    1, 0.66       2, 0.34
  6771 631-17-3        17    3.000       2582.    
     MULTIPLE LAYERS AND PROPORTIONS :    1, 0.42       2, 0.58
  6772 631-22-32       22    32.00       2552.    
     MULTIPLE LAYERS AND PROPORTIONS :    1, 0.42       2, 0.58
  6773 631-26-289      26    289.0       2555.    
     MULTIPLE LAYERS AND PROPORTIONS :    1, 0.42       2, 0.58
  6774 631-31-335      31    335.0       2534.    
     MULTIPLE LAYERS AND PROPORTIONS :    1, 0.42       2, 0.58
  6775 631-33-335      33    335.0       2527.    
     MULTIPLE LAYERS AND PROPORTIONS :    1, 0.42       2, 0.58
  6776 631-42-350      42    350.0       2508.    
  6777 631-48-343      48    343.0       2519.    
  6778 631-56-19       56    19.00       2524.    
  6779 631-61-55       61    55.00       2581.    
  6780 631-66-46       66    46.00       2598.    
  6781 593-27-11       27    11.00       2564.    
  6782 593-61-55       61    55.00       2584.    
  6783 593-66-46       66    46.00       2601.    
  6784 592-1-365        1    365.0       2597.    
 Observation within a steady-state time step has been moved to the end of the time step.
  6785 587-7-101        7    101.0       2597.    
     MULTIPLE LAYERS AND PROPORTIONS :    1, 0.40       2, 0.36       3, 0.24
  6786 587-11-307      11    307.0       2592.    
     MULTIPLE LAYERS AND PROPORTIONS :    1, 0.40       2, 0.36       3, 0.24
  6787 587-17-53       17    53.00       2588.    
     MULTIPLE LAYERS AND PROPORTIONS :    1, 0.40       2, 0.36       3, 0.24
  6788 587-26-287      26    287.0       2560.    
     MULTIPLE LAYERS AND PROPORTIONS :    1, 0.40       2, 0.36       3, 0.24
  6789 587-31-335      31    335.0       2541.    
     MULTIPLE LAYERS AND PROPORTIONS :    1, 0.40       2, 0.36       3, 0.24
  6790 587-38-60       38    60.00       2529.    
     MULTIPLE LAYERS AND PROPORTIONS :    2, 0.76       3, 0.24
  6791 587-42-350      42    350.0       2514.    
     MULTIPLE LAYERS AND PROPORTIONS :    2, 0.76       3, 0.24
  6792 587-48-343      48    343.0       2528.    
     MULTIPLE LAYERS AND PROPORTIONS :    2, 0.76       3, 0.24
  6793 587-56-19       56    19.00       2533.    
     MULTIPLE LAYERS AND PROPORTIONS :    2, 0.76       3, 0.24
  6794 587-61-55       61    55.00       2583.    
  6795 587-66-46       66    46.00       2601.    
  6796 591-11-333      11    333.0       2581.    
  6797 591-17-53       17    53.00       2583.    
  6798 591-42-350      42    350.0       2513.    
  6799 597-6-79         6    79.00       2592.    
  6800 597-11-307      11    307.0       2591.    
  6801 597-17-53       17    53.00       2582.    
  6802 597-26-287      26    287.0       2562.    
  6803 597-42-350      42    350.0       2512.    
  6804 597-48-343      48    343.0       2526.    
  6805 597-56-19       56    19.00       2531.    
  6806 597-61-60       61    60.00       2565.    
  6807 597-66-46       66    46.00       2587.    
  6808 607-42-349      42    349.0       2527.    
  6809 607-48-343      48    343.0       2540.    
  6810 607-56-23       56    23.00       2545.    
  6811 607-61-60       61    60.00       2554.    
  6812 607-66-46       66    46.00       2584.    
  6813 568-48-343      48    343.0       2551.    
     MULTIPLE LAYERS AND PROPORTIONS :    1, 0.68       2, 0.32
  6814 568-56-10       56   10.000       2554.    
     MULTIPLE LAYERS AND PROPORTIONS :    1, 0.68       2, 0.32
  6815 568-61-61       61    61.00       2538.    
     MULTIPLE LAYERS AND PROPORTIONS :    1, 0.68       2, 0.32
  6816 560-1-358        1    358.0       2617.    
 Observation within a steady-state time step has been moved to the end of the time step.
     MULTIPLE LAYERS AND PROPORTIONS :    1, 0.77       2, 0.23
  6817 560-6-340        6    340.0       2617.    
     MULTIPLE LAYERS AND PROPORTIONS :    1, 0.77       2, 0.23
  6818 560-10-349      10    349.0       2599.    
     MULTIPLE LAYERS AND PROPORTIONS :    1, 0.77       2, 0.23
  6819 545-38-6        38    6.000       2479.    
     MULTIPLE LAYERS AND PROPORTIONS :    1, 0.18       2, 0.12       3, 0.70
  6820 545-42-356      42    356.0       2524.    
     MULTIPLE LAYERS AND PROPORTIONS :    1, 0.18       2, 0.12       3, 0.70
  6821 538-1-365        1    365.0       2620.    
 Observation within a steady-state time step has been moved to the end of the time step.
     MULTIPLE LAYERS AND PROPORTIONS :    1, 0.97       2, 0.03
  6822 517-7-49         7    49.00       2615.    
  6823 574-56-24       56    24.00       2534.    
  6824 574-61-61       61    61.00       2529.    
  6825 574-66-33       66    33.00       2544.    
  6826 580-1-365        1    365.0       2614.    
 Observation within a steady-state time step has been moved to the end of the time step.
  6827 555-8-357        8    357.0       2608.    
  6828 555-12-67       12    67.00       2604.    
  6829 555-27-10       27   10.000       2570.    
  6830 555-31-335      31    335.0       2561.    
  6831 555-38-60       38    60.00       2550.    
  6832 555-56-24       56    24.00       2557.    
  6833 555-61-60       61    60.00       2550.    
  6834 555-66-33       66    33.00       2562.    
  6835 547-1-365        1    365.0       2616.    
 Observation within a steady-state time step has been moved to the end of the time step.
  6836 546-27-10       27   10.000       2574.    
  6837 539-56-10       56   10.000       2551.    
  6838 539-61-60       61    60.00       2539.    
  6839 539-66-33       66    33.00       2553.    
  6840 573-48-362      48    362.0       2549.    
  6841 573-56-9        56    9.000       2550.    
  6842 573-71-362      71    362.0       2581.    
  6843 808-48-335      48    335.0       2558.    
  6844 808-66-33       66    33.00       2546.    
  6845 808-71-61       71    61.00       2531.    
  6846 807-26-349      26    349.0       2539.    
  6847 807-43-4        43    4.000       2524.    
  6848 807-48-341      48    341.0       2491.    
  6849 805-56-9        56    9.000       2512.    
  6850 807-56-9        56    9.000       2486.    
  6851 807-61-47       61    47.00       2499.    
  6852 805-65-357      65    357.0       2511.    
  6853 807-65-357      65    357.0       2507.    
  6854 805-71-362      71    362.0       2516.    
  6855 807-71-362      71    362.0       2516.    
  6856 810-43-4        43    4.000       2471.    
  6857 810-48-362      48    362.0       2465.    
  6858 810-61-47       61    47.00       2472.    
  6859 810-65-357      65    357.0       2509.    
  6860 810-71-362      71    362.0       2533.    
  6861 767-48-335      48    335.0       2562.    
  6862 761-31-335      31    335.0       2494.    
  6863 761-37-320      37    320.0       2488.    
  6864 761-42-355      42    355.0       2468.    
  6865 761-48-342      48    342.0       2479.    
  6866 761-56-18       56    18.00       2481.    
  6867 761-61-54       61    54.00       2480.    
  6868 761-66-33       66    33.00       2511.    
  6869 763-42-355      42    355.0       2484.    
  6870 763-48-342      48    342.0       2488.    
  6871 763-56-18       56    18.00       2488.    
  6872 763-61-56       61    56.00       2488.    
  6873 763-66-33       66    33.00       2514.    
  6874 802-56-9        56    9.000       2469.    
  6875 802-61-47       61    47.00       2460.    
  6876 802-65-357      65    357.0       2496.    
  6877 802-71-362      71    362.0       2515.    
  6878 781-61-54       61    54.00       2482.    
  6879 781-66-33       66    33.00       2514.    
  6880 775-56-27       56    27.00       2485.    
  6881 775-61-54       61    54.00       2484.    
  6882 775-66-33       66    33.00       2515.    
  6883 786-66-33       66    33.00       2504.    
  6884 782-26-336      26    336.0       2502.    
  6885 782-31-335      31    335.0       2489.    
  6886 782-43-4        43    4.000       2455.    
  6887 782-48-362      48    362.0       2463.    
  6888 782-56-9        56    9.000       2471.    
  6889 782-61-47       61    47.00       2456.    
  6890 782-65-357      65    357.0       2505.    
  6891 782-71-362      71    362.0       2523.    
  6892 755-27-12       27    12.00       2512.    
  6893 755-31-348      31    348.0       2492.    
  6894 755-37-26       37    26.00       2467.    
  6895 755-42-357      42    357.0       2472.    
  6896 755-48-342      48    342.0       2464.    
  6897 755-56-18       56    18.00       2477.    
  6898 755-60-320      60    320.0       2475.    
  6899 755-65-298      65    298.0       2509.    
  6900 755-71-365      71    365.0       2524.    
  6901 776-42-354      42    354.0       2621.    
     MULTIPLE LAYERS AND PROPORTIONS :    2, 0.57       3, 0.43
  6902 776-48-335      48    335.0       2625.    
     MULTIPLE LAYERS AND PROPORTIONS :    2, 0.57       3, 0.43
  6903 776-56-17       56    17.00       2621.    
     MULTIPLE LAYERS AND PROPORTIONS :    2, 0.57       3, 0.43
  6904 776-61-53       61    53.00       2616.    
     MULTIPLE LAYERS AND PROPORTIONS :    2, 0.57       3, 0.43
  6905 785-32-62       32    62.00       2582.    
  6906 785-37-32       37    32.00       2565.    
  6907 785-48-334      48    334.0       2578.    
  6908 785-56-19       56    19.00       2574.    
  6909 785-66-33       66    33.00       2559.    
  6910 784-32-62       32    62.00       2579.    
  6911 784-66-33       66    33.00       2552.    
  6912 777-32-6        32    6.000       2568.    
  6913 777-37-32       37    32.00       2563.    
  6914 777-42-355      42    355.0       2560.    
  6915 777-48-334      48    334.0       2557.    
  6916 777-56-18       56    18.00       2552.    
  6917 778-42-355      42    355.0       2583.    
  6918 778-48-334      48    334.0       2582.    
  6919 778-56-18       56    18.00       2572.    
  6920 778-60-321      60    321.0       2563.    
  6921 778-65-299      65    299.0       2553.    
  6922 778-71-365      71    365.0       2542.    
  6923 779-42-355      42    355.0       2598.    
  6924 779-48-334      48    334.0       2600.    
  6925 779-56-18       56    18.00       2594.    
  6926 779-60-321      60    321.0       2587.    
  6927 779-65-299      65    299.0       2574.    
  6928 779-71-365      71    365.0       2564.    
  6929 801-36-310      36    310.0       2530.    
  6930 797-65-356      65    356.0       2527.    
  6931 797-71-362      71    362.0       2516.    
  6932 768-42-355      42    355.0       2572.    
  6933 768-48-335      48    335.0       2565.    
  6934 732-36-316      36    316.0       2606.    
     MULTIPLE LAYERS AND PROPORTIONS :    1, 0.29       2, 0.36       3, 0.35
  6935 765-32-6        32    6.000       2602.    
  6936 765-42-355      42    355.0       2590.    
  6937 765-48-348      48    348.0       2588.    
  6938 765-56-11       56    11.00       2585.    
  6939 765-61-48       61    48.00       2578.    
  6940 765-65-356      65    356.0       2569.    
  6941 765-71-362      71    362.0       2559.    
  6942 718-37-32       37    32.00       2606.    
     MULTIPLE LAYERS AND PROPORTIONS :    2, 0.38       3, 0.62
  6943 718-48-334      48    334.0       2620.    
     MULTIPLE LAYERS AND PROPORTIONS :    2, 0.38       3, 0.62
  6944 718-56-16       56    16.00       2618.    
     MULTIPLE LAYERS AND PROPORTIONS :    2, 0.38       3, 0.62
  6945 718-61-53       61    53.00       2611.    
     MULTIPLE LAYERS AND PROPORTIONS :    2, 0.38       3, 0.62
  6946 718-66-32       66    32.00       2605.    
     MULTIPLE LAYERS AND PROPORTIONS :    2, 0.38       3, 0.62
  6947 718-71-60       71    60.00       2597.    
     MULTIPLE LAYERS AND PROPORTIONS :    2, 0.38       3, 0.62
  6948 728-7-85         7    85.00       2589.    
  6949 728-12-124      12    124.0       2591.    
  6950 728-17-78       17    78.00       2590.    
  6951 728-27-5        27    5.000       2585.    
  6952 728-32-6        32    6.000       2583.    
  6953 728-37-32       37    32.00       2577.    
  6954 728-42-355      42    355.0       2577.    
  6955 728-48-334      48    334.0       2571.    
  6956 728-56-18       56    18.00       2565.    
  6957 681-7-358        7    358.0       2622.    
  6958 681-12-103      12    103.0       2627.    
  6959 681-17-78       17    78.00       2625.    
  6960 681-32-61       32    61.00       2617.    
  6961 681-37-32       37    32.00       2608.    
  6962 662-71-365      71    365.0       2600.    
  6963 616-42-355      42    355.0       2610.    
  6964 616-56-16       56    16.00       2613.    
  6965 825-71-62       71    62.00       2683.    
  6966 608-32-62       32    62.00       2625.    
     MULTIPLE LAYERS AND PROPORTIONS :    2, 0.74       3, 0.26
  6967 608-48-348      48    348.0       2612.    
     MULTIPLE LAYERS AND PROPORTIONS :    2, 0.74       3, 0.26
  6968 608-56-11       56    11.00       2610.    
     MULTIPLE LAYERS AND PROPORTIONS :    2, 0.74       3, 0.26
  6969 608-61-41       61    41.00       2604.    
     MULTIPLE LAYERS AND PROPORTIONS :    2, 0.74       3, 0.26
  6970 608-65-355      65    355.0       2598.    
     MULTIPLE LAYERS AND PROPORTIONS :    2, 0.74       3, 0.26
  6971 608-71-365      71    365.0       2590.    
     MULTIPLE LAYERS AND PROPORTIONS :    2, 0.74       3, 0.26
  6972 559-8-73         8    73.00       2650.    
  6973 559-12-60       12    60.00       2648.    
  6974 559-17-78       17    78.00       2645.    
  6975 559-32-62       32    62.00       2635.    
  6976 559-36-335      36    335.0       2633.    
  6977 806-71-62       71    62.00       2679.    
  6978 771-43-68       43    68.00       2683.    
  6979 764-43-68       43    68.00       2679.    
  6980 764-48-342      48    342.0       2689.    
  6981 764-56-17       56    17.00       2685.    
  6982 764-61-60       61    60.00       2681.    
  6983 764-66-19       66    19.00       2671.    
  6984 764-71-63       71    63.00       2637.    
  6985 731-32-61       32    61.00       2676.    
  6986 731-42-355      42    355.0       2676.    
  6987 730-48-342      48    342.0       2689.    
  6988 730-56-17       56    17.00       2682.    
  6989 730-60-320      60    320.0       2678.    
  6990 730-71-365      71    365.0       2653.    
  6991 725-48-343      48    343.0       2682.    
  6992 725-56-16       56    16.00       2675.    
  6993 725-61-59       61    59.00       2671.    
  6994 725-66-19       66    19.00       2660.    
  6995 725-71-63       71    63.00       2649.    
  6996 683-7-360        7    360.0       2686.    
  6997 683-12-102      12    102.0       2682.    
  6998 683-17-78       17    78.00       2681.    
  6999 683-32-61       32    61.00       2678.    
  7000 683-37-32       37    32.00       2678.    
  7001 683-48-342      48    342.0       2690.    
  7002 528-56-10       56   10.000       2551.    
     MULTIPLE LAYERS AND PROPORTIONS :    1, 0.40       2, 0.27       3, 0.33
  7003 528-61-56       61    56.00       2563.    
     MULTIPLE LAYERS AND PROPORTIONS :    1, 0.40       2, 0.27       3, 0.33
  7004 528-66-34       66    34.00       2585.    
     MULTIPLE LAYERS AND PROPORTIONS :    1, 0.40       2, 0.27       3, 0.33
  7005 532-56-10       56   10.000       2465.    
  7006 532-61-56       61    56.00       2464.    
  7007 523-42-363      42    363.0       2441.    
  7008 523-48-343      48    343.0       2487.    
  7009 523-56-10       56   10.000       2443.    
  7010 523-61-56       61    56.00       2416.    
  7011 506-31-282      31    282.0       2501.    
  7012 506-56-10       56   10.000       2455.    
  7013 506-60-321      60    321.0       2429.    
  7014 516-56-10       56   10.000       2456.    
     MULTIPLE LAYERS AND PROPORTIONS :    2, 0.06       3, 0.94
  7015 516-61-56       61    56.00       2430.    
     MULTIPLE LAYERS AND PROPORTIONS :    2, 0.06       3, 0.94
  7016 507-17-55       17    55.00       2618.    
     MULTIPLE LAYERS AND PROPORTIONS :    1, 0.22       2, 0.56       3, 0.22
  7017 507-22-40       22    40.00       2610.    
     MULTIPLE LAYERS AND PROPORTIONS :    1, 0.22       2, 0.56       3, 0.22
  7018 507-26-299      26    299.0       2574.    
     MULTIPLE LAYERS AND PROPORTIONS :    1, 0.22       2, 0.56       3, 0.22
  7019 507-31-335      31    335.0       2512.    
     MULTIPLE LAYERS AND PROPORTIONS :    2, 0.78       3, 0.22
  7020 507-48-343      48    343.0       2489.    
     MULTIPLE LAYERS AND PROPORTIONS :    2, 0.78       3, 0.22
  7021 507-56-10       56   10.000       2454.    
     MULTIPLE LAYERS AND PROPORTIONS :    2, 0.78       3, 0.22
  7022 496-17-55       17    55.00       2616.    
  7023 496-22-40       22    40.00       2601.    
  7024 496-31-335      31    335.0       2517.    
  7025 492-56-10       56   10.000       2460.    
  7026 492-61-60       61    60.00       2433.    
  7027 492-66-31       66    31.00       2444.    
  7028 466-56-10       56   10.000       2485.    
  7029 466-61-60       61    60.00       2462.    
  7030 466-66-34       66    34.00       2469.    
  7031 462-56-10       56   10.000       2487.    
  7032 462-61-60       61    60.00       2467.    
  7033 462-66-34       66    34.00       2471.    
  7034 476-56-10       56   10.000       2543.    
  7035 476-61-60       61    60.00       2520.    
  7036 465-56-10       56   10.000       2488.    
     MULTIPLE LAYERS AND PROPORTIONS :    2, 0.14       3, 0.86
  7037 465-61-60       61    60.00       2465.    
     MULTIPLE LAYERS AND PROPORTIONS :    2, 0.14       3, 0.86
  7038 465-66-34       66    34.00       2471.    
     MULTIPLE LAYERS AND PROPORTIONS :    2, 0.14       3, 0.86
  7039 460-1-365        1    365.0       2621.    
 Observation within a steady-state time step has been moved to the end of the time step.
  7040 458-38-7        38    7.000       2512.    
  7041 458-48-336      48    336.0       2521.    
  7042 458-56-10       56   10.000       2500.    
  7043 458-61-60       61    60.00       2475.    
  7044 458-66-54       66    54.00       2482.    
  7045 458-71-34       71    34.00       2477.    
  7046 440-38-6        38    6.000       2577.    
     MULTIPLE LAYERS AND PROPORTIONS :    2, 0.80       3, 0.20
  7047 440-42-356      42    356.0       2567.    
     MULTIPLE LAYERS AND PROPORTIONS :    2, 0.80       3, 0.20
  7048 440-48-337      48    337.0       2577.    
     MULTIPLE LAYERS AND PROPORTIONS :    2, 0.80       3, 0.20
  7049 443-1-365        1    365.0       2655.    
 Observation within a steady-state time step has been moved to the end of the time step.
  7050 439-1-358        1    358.0       2668.    
 Observation within a steady-state time step has been moved to the end of the time step.
  7051 439-4-350        4    350.0       2664.    
  7052 449-10-89       10    89.00       2694.    
  7053 418-48-342      48    342.0       2555.    
  7054 418-56-18       56    18.00       2536.    
  7055 415-48-342      48    342.0       2559.    
  7056 415-56-18       56    18.00       2540.    
  7057 421-34-313      34    313.0       2575.    
  7058 421-48-343      48    343.0       2651.    
  7059 421-56-12       56    12.00       2520.    
  7060 421-61-60       61    60.00       2505.    
  7061 417-34-60       34    60.00       2622.    
  7062 412-6-290        6    290.0       2682.    
     MULTIPLE LAYERS AND PROPORTIONS :    1, 0.46       2, 0.54
  7063 412-10-297      10    297.0       2676.    
     MULTIPLE LAYERS AND PROPORTIONS :    1, 0.46       2, 0.54
  7064 412-17-4        17    4.000       2653.    
     MULTIPLE LAYERS AND PROPORTIONS :    1, 0.46       2, 0.54
  7065 412-27-12       27    12.00       2630.    
     MULTIPLE LAYERS AND PROPORTIONS :    1, 0.46       2, 0.54
  7066 412-38-6        38    6.000       2587.    
  7067 412-42-356      42    356.0       2584.    
  7068 412-48-336      48    336.0       2593.    
  7069 411-48-336      48    336.0       2587.    
     MULTIPLE LAYERS AND PROPORTIONS :    2, 0.15       3, 0.85
  7070 411-56-11       56    11.00       2548.    
     MULTIPLE LAYERS AND PROPORTIONS :    2, 0.15       3, 0.85
  7071 411-61-60       61    60.00       2529.    
     MULTIPLE LAYERS AND PROPORTIONS :    2, 0.15       3, 0.85
  7072 411-66-54       66    54.00       2524.    
     MULTIPLE LAYERS AND PROPORTIONS :    2, 0.15       3, 0.85
  7073 411-71-33       71    33.00       2510.    
     MULTIPLE LAYERS AND PROPORTIONS :    2, 0.15       3, 0.85
  7074 405-38-6        38    6.000       2576.    
     MULTIPLE LAYERS AND PROPORTIONS :    2, 0.06       3, 0.94
  7075 405-42-355      42    355.0       2545.    
     MULTIPLE LAYERS AND PROPORTIONS :    2, 0.06       3, 0.94
  7076 405-48-334      48    334.0       2569.    
     MULTIPLE LAYERS AND PROPORTIONS :    2, 0.06       3, 0.94
  7077 405-56-11       56    11.00       2572.    
     MULTIPLE LAYERS AND PROPORTIONS :    2, 0.06       3, 0.94
  7078 405-61-60       61    60.00       2539.    
     MULTIPLE LAYERS AND PROPORTIONS :    2, 0.06       3, 0.94
  7079 405-66-54       66    54.00       2530.    
     MULTIPLE LAYERS AND PROPORTIONS :    2, 0.06       3, 0.94
  7080 405-71-33       71    33.00       2515.    
  7081 396-17-4        17    4.000       2673.    
     MULTIPLE LAYERS AND PROPORTIONS :    1, 0.35       2, 0.44       3, 0.21
  7082 396-27-12       27    12.00       2636.    
     MULTIPLE LAYERS AND PROPORTIONS :    1, 0.35       2, 0.44       3, 0.21
  7083 396-38-6        38    6.000       2595.    
     MULTIPLE LAYERS AND PROPORTIONS :    2, 0.79       3, 0.21
  7084 396-42-355      42    355.0       2564.    
     MULTIPLE LAYERS AND PROPORTIONS :    2, 0.79       3, 0.21
  7085 396-48-336      48    336.0       2581.    
     MULTIPLE LAYERS AND PROPORTIONS :    2, 0.79       3, 0.21
  7086 393-1-358        1    358.0       2703.    
 Observation within a steady-state time step has been moved to the end of the time step.
  7087 398-38-6        38    6.000       2565.    
     MULTIPLE LAYERS AND PROPORTIONS :    2, 0.08       3, 0.92
  7088 398-42-356      42    356.0       2540.    
     MULTIPLE LAYERS AND PROPORTIONS :    2, 0.08       3, 0.92
  7089 387-42-356      42    356.0       2544.    
  7090 387-48-336      48    336.0       2564.    
  7091 387-56-11       56    11.00       2551.    
  7092 387-61-60       61    60.00       2535.    
  7093 387-66-54       66    54.00       2531.    
  7094 387-71-33       71    33.00       2515.    
  7095 386-17-4        17    4.000       2684.    
  7096 386-27-12       27    12.00       2644.    
  7097 386-48-336      48    336.0       2595.    
  7098 381-38-6        38    6.000       2578.    
     MULTIPLE LAYERS AND PROPORTIONS :    1, 0.25       2, 0.75
  7099 381-42-356      42    356.0       2574.    
     MULTIPLE LAYERS AND PROPORTIONS :    1, 0.25       2, 0.75
  7100 381-48-336      48    336.0       2584.    
     MULTIPLE LAYERS AND PROPORTIONS :    1, 0.25       2, 0.75
  7101 361-26-295      26    295.0       2654.    
  7102 361-43-14       43    14.00       2526.    
  7103 361-56-12       56    12.00       2552.    
  7104 361-61-60       61    60.00       2534.    
  7105 361-66-31       66    31.00       2524.    
  7106 365-1-365        1    365.0       2700.    
 Observation within a steady-state time step has been moved to the end of the time step.
  7107 364-42-356      42    356.0       2553.    
  7108 363-1-365        1    365.0       2702.    
 Observation within a steady-state time step has been moved to the end of the time step.
  7109 391-56-12       56    12.00       2551.    
     MULTIPLE LAYERS AND PROPORTIONS :    2, 0.22       3, 0.78
  7110 391-61-60       61    60.00       2535.    
     MULTIPLE LAYERS AND PROPORTIONS :    2, 0.22       3, 0.78
  7111 372-43-14       43    14.00       2535.    
  7112 372-56-12       56    12.00       2543.    
  7113 372-61-60       61    60.00       2535.    
  7114 375-56-19       56    19.00       2559.    
  7115 358-56-19       56    19.00       2556.    
  7116 350-56-19       56    19.00       2568.    
  7117 343-56-19       56    19.00       2566.    
  7118 345-43-6        43    6.000       2552.    
  7119 356-56-12       56    12.00       2558.    
  7120 356-61-60       61    60.00       2544.    
  7121 352-17-4        17    4.000       2694.    
  7122 352-22-51       22    51.00       2686.    
  7123 352-27-14       27    14.00       2662.    
  7124 342-37-342      37    342.0       2587.    
  7125 342-43-14       43    14.00       2567.    
  7126 349-27-13       27    13.00       2659.    
  7127 348-56-11       56    11.00       2621.    
     MULTIPLE LAYERS AND PROPORTIONS :    1, 0.59       2, 0.41
  7128 348-61-54       61    54.00       2610.    
     MULTIPLE LAYERS AND PROPORTIONS :    1, 0.59       2, 0.41
  7129 348-66-35       66    35.00       2604.    
     MULTIPLE LAYERS AND PROPORTIONS :    1, 0.59       2, 0.41
  7130 351-3-56         3    56.00       2741.    
     MULTIPLE LAYERS AND PROPORTIONS :    1, 0.57       2, 0.43
  7131 351-22-46       22    46.00       2687.    
     MULTIPLE LAYERS AND PROPORTIONS :    1, 0.57       2, 0.43
  7132 351-27-62       27    62.00       2672.    
     MULTIPLE LAYERS AND PROPORTIONS :    1, 0.57       2, 0.43
  7133 351-37-342      37    342.0       2622.    
  7134 351-43-14       43    14.00       2621.    
  7135 351-48-337      48    337.0       2632.    
  7136 351-56-11       56    11.00       2632.    
  7137 351-61-54       61    54.00       2623.    
  7138 351-66-35       66    35.00       2620.    
  7139 346-17-4        17    4.000       2697.    
  7140 346-27-14       27    14.00       2658.    
  7141 347-11-304      11    304.0       2719.    
     MULTIPLE LAYERS AND PROPORTIONS :    1, 0.49       2, 0.51
  7142 347-17-59       17    59.00       2705.    
     MULTIPLE LAYERS AND PROPORTIONS :    1, 0.49       2, 0.51
  7143 347-22-46       22    46.00       2680.    
     MULTIPLE LAYERS AND PROPORTIONS :    1, 0.49       2, 0.51
  7144 347-27-14       27    14.00       2664.    
     MULTIPLE LAYERS AND PROPORTIONS :    1, 0.49       2, 0.51
  7145 347-31-335      31    335.0       2647.    
     MULTIPLE LAYERS AND PROPORTIONS :    1, 0.49       2, 0.51
  7146 347-56-11       56    11.00       2625.    
  7147 347-61-54       61    54.00       2617.    
  7148 347-66-35       66    35.00       2608.    
  7149 341-17-4        17    4.000       2701.    
  7150 524-37-354      37    354.0       2605.    
  7151 524-43-4        43    4.000       2599.    
  7152 524-48-335      48    335.0       2592.    
  7153 524-56-9        56    9.000       2592.    
  7154 524-61-47       61    47.00       2583.    
  7155 524-65-357      65    357.0       2580.    
  7156 524-71-362      71    362.0       2584.    
  7157 3418-43-4       43    4.000       2540.    
     MULTIPLE LAYERS AND PROPORTIONS :    1, 0.74       2, 0.26
  7158 3418-48-362     48    362.0       2529.    
     MULTIPLE LAYERS AND PROPORTIONS :    1, 0.74       2, 0.26
  7159 3418-56-9       56    9.000       2554.    
     MULTIPLE LAYERS AND PROPORTIONS :    1, 0.74       2, 0.26
  7160 3418-65-357     65    357.0       2528.    
     MULTIPLE LAYERS AND PROPORTIONS :    1, 0.74       2, 0.26
  7161 3418-71-362     71    362.0       2567.    
     MULTIPLE LAYERS AND PROPORTIONS :    1, 0.74       2, 0.26
  7162 525-35-347      35    347.0       2563.    
  7163 525-56-9        56    9.000       2518.    
  7164 525-71-362      71    362.0       2568.    
  7165 514-31-335      31    335.0       2560.    
     MULTIPLE LAYERS AND PROPORTIONS :    1, 0.30       2, 0.70
  7166 514-36-360      36    360.0       2541.    
     MULTIPLE LAYERS AND PROPORTIONS :    1, 0.30       2, 0.70
  7167 514-43-4        43    4.000       2545.    
     MULTIPLE LAYERS AND PROPORTIONS :    1, 0.30       2, 0.70
  7168 514-48-362      48    362.0       2545.    
     MULTIPLE LAYERS AND PROPORTIONS :    1, 0.30       2, 0.70
  7169 514-56-9        56    9.000       2548.    
     MULTIPLE LAYERS AND PROPORTIONS :    1, 0.30       2, 0.70
  7170 514-61-47       61    47.00       2536.    
     MULTIPLE LAYERS AND PROPORTIONS :    1, 0.30       2, 0.70
  7171 514-65-357      65    357.0       2542.    
     MULTIPLE LAYERS AND PROPORTIONS :    1, 0.30       2, 0.70
  7172 514-71-362      71    362.0       2568.    
     MULTIPLE LAYERS AND PROPORTIONS :    1, 0.30       2, 0.70
  7173 513-32-41       32    41.00       2552.    
     MULTIPLE LAYERS AND PROPORTIONS :    1, 0.39       2, 0.61
  7174 513-39-60       39    60.00       2558.    
     MULTIPLE LAYERS AND PROPORTIONS :    1, 0.39       2, 0.61
  7175 513-43-4        43    4.000       2538.    
     MULTIPLE LAYERS AND PROPORTIONS :    1, 0.39       2, 0.61
  7176 513-48-362      48    362.0       2544.    
     MULTIPLE LAYERS AND PROPORTIONS :    1, 0.39       2, 0.61
  7177 513-56-9        56    9.000       2553.    
     MULTIPLE LAYERS AND PROPORTIONS :    1, 0.39       2, 0.61
  7178 513-61-47       61    47.00       2533.    
     MULTIPLE LAYERS AND PROPORTIONS :    1, 0.39       2, 0.61
  7179 513-65-357      65    357.0       2541.    
     MULTIPLE LAYERS AND PROPORTIONS :    1, 0.39       2, 0.61
  7180 513-71-362      71    362.0       2568.    
     MULTIPLE LAYERS AND PROPORTIONS :    1, 0.39       2, 0.61
  7181 526-11-307      11    307.0       2603.    
  7182 526-17-53       17    53.00       2591.    
  7183 526-22-38       22    38.00       2579.    
  7184 487-17-4        17    4.000       2600.    
     MULTIPLE LAYERS AND PROPORTIONS :    1, 0.87       2, 0.13
  7185 487-27-10       27   10.000       2590.    
     MULTIPLE LAYERS AND PROPORTIONS :    1, 0.87       2, 0.13
  7186 487-38-6        38    6.000       2565.    
     MULTIPLE LAYERS AND PROPORTIONS :    1, 0.87       2, 0.13
  7187 487-42-356      42    356.0       2539.    
     MULTIPLE LAYERS AND PROPORTIONS :    1, 0.87       2, 0.13
  7188 494-42-355      42    355.0       2519.    
     MULTIPLE LAYERS AND PROPORTIONS :    2, 0.16       3, 0.84
  7189 494-48-334      48    334.0       2533.    
     MULTIPLE LAYERS AND PROPORTIONS :    2, 0.16       3, 0.84
  7190 494-56-10       56   10.000       2544.    
     MULTIPLE LAYERS AND PROPORTIONS :    2, 0.16       3, 0.84
  7191 494-61-60       61    60.00       2518.    
     MULTIPLE LAYERS AND PROPORTIONS :    2, 0.16       3, 0.84
  7192 494-66-49       66    49.00       2535.    
     MULTIPLE LAYERS AND PROPORTIONS :    2, 0.16       3, 0.84
  7193 494-71-33       71    33.00       2549.    
     MULTIPLE LAYERS AND PROPORTIONS :    2, 0.16       3, 0.84
  7194 530-38-6        38    6.000       2527.    
     MULTIPLE LAYERS AND PROPORTIONS :    2, 0.22       3, 0.78
  7195 530-48-334      48    334.0       2529.    
     MULTIPLE LAYERS AND PROPORTIONS :    2, 0.22       3, 0.78
  7196 530-56-10       56   10.000       2531.    
     MULTIPLE LAYERS AND PROPORTIONS :    2, 0.22       3, 0.78
  7197 530-61-60       61    60.00       2523.    
     MULTIPLE LAYERS AND PROPORTIONS :    2, 0.22       3, 0.78
  7198 530-66-49       66    49.00       2543.    
     MULTIPLE LAYERS AND PROPORTIONS :    2, 0.22       3, 0.78
  7199 530-71-33       71    33.00       2549.    
     MULTIPLE LAYERS AND PROPORTIONS :    2, 0.22       3, 0.78
  7200 509-38-6        38    6.000       2536.    
     MULTIPLE LAYERS AND PROPORTIONS :    2, 0.43       3, 0.57
  7201 509-42-355      42    355.0       2502.    
     MULTIPLE LAYERS AND PROPORTIONS :    2, 0.43       3, 0.57
  7202 509-48-334      48    334.0       2532.    
     MULTIPLE LAYERS AND PROPORTIONS :    2, 0.43       3, 0.57
  7203 509-56-10       56   10.000       2532.    
     MULTIPLE LAYERS AND PROPORTIONS :    2, 0.43       3, 0.57
  7204 509-61-60       61    60.00       2516.    
     MULTIPLE LAYERS AND PROPORTIONS :    2, 0.43       3, 0.57
  7205 509-66-49       66    49.00       2535.    
     MULTIPLE LAYERS AND PROPORTIONS :    2, 0.43       3, 0.57
  7206 509-71-33       71    33.00       2542.    
     MULTIPLE LAYERS AND PROPORTIONS :    2, 0.43       3, 0.57
  7207 518-17-3        17    3.000       2603.    
  7208 518-27-11       27    11.00       2565.    
  7209 518-42-355      42    355.0       2539.    
  7210 510-1-358        1    358.0       2622.    
 Observation within a steady-state time step has been moved to the end of the time step.
  7211 495-1-358        1    358.0       2628.    
 Observation within a steady-state time step has been moved to the end of the time step.
  7212 491-7-49         7    49.00       2629.    
  7213 490-7-49         7    49.00       2623.    
  7214 490-17-4        17    4.000       2607.    
  7215 490-27-10       27   10.000       2601.    
  7216 481-38-7        38    7.000       2576.    
     MULTIPLE LAYERS AND PROPORTIONS :    1, 0.11       2, 0.22       3, 0.67
  7217 481-42-355      42    355.0       2557.    
     MULTIPLE LAYERS AND PROPORTIONS :    1, 0.11       2, 0.22       3, 0.67
  7218 481-48-334      48    334.0       2565.    
     MULTIPLE LAYERS AND PROPORTIONS :    1, 0.11       2, 0.22       3, 0.67
  7219 481-56-10       56   10.000       2566.    
     MULTIPLE LAYERS AND PROPORTIONS :    1, 0.11       2, 0.22       3, 0.67
  7220 481-61-60       61    60.00       2548.    
     MULTIPLE LAYERS AND PROPORTIONS :    2, 0.33       3, 0.67
  7221 481-66-49       66    49.00       2562.    
     MULTIPLE LAYERS AND PROPORTIONS :    2, 0.33       3, 0.67
  7222 481-71-33       71    33.00       2568.    
     MULTIPLE LAYERS AND PROPORTIONS :    2, 0.33       3, 0.67
  7223 473-38-7        38    7.000       2580.    
     MULTIPLE LAYERS AND PROPORTIONS :    1, 0.92       2, 0.08
  7224 473-42-355      42    355.0       2563.    
     MULTIPLE LAYERS AND PROPORTIONS :    1, 0.92       2, 0.08
  7225 484-38-6        38    6.000       2395.    
  7226 455-22-51       22    51.00       2600.    
     MULTIPLE LAYERS AND PROPORTIONS :    2, 0.08       3, 0.92
  7227 455-27-11       27    11.00       2605.    
     MULTIPLE LAYERS AND PROPORTIONS :    2, 0.08       3, 0.92
  7228 455-38-7        38    7.000       2560.    
     MULTIPLE LAYERS AND PROPORTIONS :    2, 0.08       3, 0.92
  7229 455-42-355      42    355.0       2542.    
     MULTIPLE LAYERS AND PROPORTIONS :    2, 0.08       3, 0.92
  7230 455-48-336      48    336.0       2559.    
     MULTIPLE LAYERS AND PROPORTIONS :    2, 0.08       3, 0.92
  7231 457-1-358        1    358.0       2645.    
 Observation within a steady-state time step has been moved to the end of the time step.
  7232 456-38-6        38    6.000       2573.    
  7233 456-42-356      42    356.0       2540.    
  7234 456-48-334      48    334.0       2557.    
  7235 456-56-10       56   10.000       2556.    
  7236 456-61-60       61    60.00       2533.    
  7237 456-66-54       66    54.00       2542.    
  7238 456-71-33       71    33.00       2543.    
  7239 454-8-253        8    253.0       2652.    
     MULTIPLE LAYERS AND PROPORTIONS :    2, 0.21       3, 0.79
  7240 454-38-6        38    6.000       2572.    
     MULTIPLE LAYERS AND PROPORTIONS :    2, 0.21       3, 0.79
  7241 454-42-355      42    355.0       2549.    
     MULTIPLE LAYERS AND PROPORTIONS :    2, 0.21       3, 0.79
  7242 454-48-334      48    334.0       2559.    
     MULTIPLE LAYERS AND PROPORTIONS :    2, 0.21       3, 0.79
  7243 454-56-10       56   10.000       2567.    
     MULTIPLE LAYERS AND PROPORTIONS :    2, 0.21       3, 0.79
  7244 454-61-60       61    60.00       2542.    
     MULTIPLE LAYERS AND PROPORTIONS :    2, 0.21       3, 0.79
  7245 454-66-49       66    49.00       2551.    
     MULTIPLE LAYERS AND PROPORTIONS :    2, 0.21       3, 0.79
  7246 454-71-33       71    33.00       2555.    
     MULTIPLE LAYERS AND PROPORTIONS :    2, 0.21       3, 0.79
  7247 483-48-334      48    334.0       2555.    
  7248 475-1-365        1    365.0       2620.    
 Observation within a steady-state time step has been moved to the end of the time step.
  7249 472-17-4        17    4.000       2609.    
     MULTIPLE LAYERS AND PROPORTIONS :    1, 0.47       2, 0.53
  7250 472-27-12       27    12.00       2590.    
     MULTIPLE LAYERS AND PROPORTIONS :    1, 0.47       2, 0.53
  7251 472-38-6        38    6.000       2566.    
     MULTIPLE LAYERS AND PROPORTIONS :    1, 0.47       2, 0.53
  7252 472-42-355      42    355.0       2533.    
     MULTIPLE LAYERS AND PROPORTIONS :    1, 0.47       2, 0.53
  7253 472-48-334      48    334.0       2548.    
     MULTIPLE LAYERS AND PROPORTIONS :    1, 0.47       2, 0.53
  7254 464-17-4        17    4.000       2599.    
  7255 464-27-12       27    12.00       2591.    
  7256 464-48-336      48    336.0       2546.    
  7257 442-71-61       71    61.00       2631.    
  7258 438-48-336      48    336.0       2577.    
  7259 436-71-336      71    336.0       2533.    
  7260 422-17-55       17    55.00       2653.    
  7261 422-22-38       22    38.00       2624.    
  7262 422-27-12       27    12.00       2625.    
  7263 422-31-335      31    335.0       2595.    
  7264 422-38-91       38    91.00       2581.    
  7265 426-48-336      48    336.0       2582.    
  7266 426-56-13       56    13.00       2579.    
  7267 426-66-34       66    34.00       2577.    
  7268 430-7-49         7    49.00       2654.    
  7269 430-17-4        17    4.000       2626.    
  7270 430-27-10       27   10.000       2612.    
  7271 432-38-6        38    6.000       2588.    
     MULTIPLE LAYERS AND PROPORTIONS :    2, 0.26       3, 0.74
  7272 432-42-356      42    356.0       2564.    
     MULTIPLE LAYERS AND PROPORTIONS :    2, 0.26       3, 0.74
  7273 432-48-334      48    334.0       2580.    
     MULTIPLE LAYERS AND PROPORTIONS :    2, 0.26       3, 0.74
  7274 432-56-10       56   10.000       2578.    
     MULTIPLE LAYERS AND PROPORTIONS :    2, 0.26       3, 0.74
  7275 432-61-60       61    60.00       2553.    
     MULTIPLE LAYERS AND PROPORTIONS :    2, 0.26       3, 0.74
  7276 432-66-49       66    49.00       2562.    
     MULTIPLE LAYERS AND PROPORTIONS :    2, 0.26       3, 0.74
  7277 432-71-33       71    33.00       2563.    
     MULTIPLE LAYERS AND PROPORTIONS :    2, 0.26       3, 0.74
  7278 452-48-335      48    335.0       2553.    
  7279 452-56-11       56    11.00       2550.    
  7280 431-1-358        1    358.0       2659.    
 Observation within a steady-state time step has been moved to the end of the time step.
  7281 431-6-340        6    340.0       2656.    
  7282 431-11-333      11    333.0       2649.    
  7283 431-36-38       36    38.00       2623.    
  7284 429-42-356      42    356.0       2535.    
     MULTIPLE LAYERS AND PROPORTIONS :    2, 0.07       3, 0.93
  7285 429-48-334      48    334.0       2555.    
     MULTIPLE LAYERS AND PROPORTIONS :    2, 0.07       3, 0.93
  7286 429-56-11       56    11.00       2556.    
     MULTIPLE LAYERS AND PROPORTIONS :    2, 0.07       3, 0.93
  7287 429-61-60       61    60.00       2526.    
     MULTIPLE LAYERS AND PROPORTIONS :    2, 0.07       3, 0.93
  7288 429-66-54       66    54.00       2537.    
     MULTIPLE LAYERS AND PROPORTIONS :    2, 0.07       3, 0.93
  7289 429-71-33       71    33.00       2536.    
     MULTIPLE LAYERS AND PROPORTIONS :    2, 0.07       3, 0.93
  7290 420-17-7        17    7.000       2664.    
     MULTIPLE LAYERS AND PROPORTIONS :    1, 0.38       2, 0.62
  7291 420-27-10       27   10.000       2631.    
     MULTIPLE LAYERS AND PROPORTIONS :    1, 0.38       2, 0.62
  7292 420-48-335      48    335.0       2595.    
  7293 407-38-6        38    6.000       2581.    
     MULTIPLE LAYERS AND PROPORTIONS :    2, 0.85       3, 0.15
  7294 407-42-355      42    355.0       2554.    
     MULTIPLE LAYERS AND PROPORTIONS :    2, 0.85       3, 0.15
  7295 407-48-334      48    334.0       2561.    
     MULTIPLE LAYERS AND PROPORTIONS :    2, 0.85       3, 0.15
  7296 401-38-6        38    6.000       2603.    
  7297 401-42-355      42    355.0       2590.    
  7298 401-48-335      48    335.0       2603.    
  7299 410-42-355      42    355.0       2552.    
  7300 410-48-334      48    334.0       2569.    
  7301 410-56-10       56   10.000       2565.    
  7302 410-61-60       61    60.00       2542.    
  7303 410-66-49       66    49.00       2542.    
  7304 410-71-33       71    33.00       2532.    
  7305 376-31-348      31    348.0       2628.    
  7306 376-37-19       37    19.00       2619.    
  7307 376-43-47       43    47.00       2613.    
  7308 376-48-343      48    343.0       2612.    
  7309 376-56-11       56    11.00       2610.    
  7310 376-60-321      60    321.0       2601.    
  7311 376-65-298      65    298.0       2592.    
  7312 414-71-365      71    365.0       2596.    
  7313 416-34-357      34    357.0       2620.    
     MULTIPLE LAYERS AND PROPORTIONS :    1, 0.85       2, 0.15
  7314 366-17-55       17    55.00       2706.    
  7315 366-22-33       22    33.00       2684.    
  7316 366-27-10       27   10.000       2661.    
  7317 366-33-10       33   10.000       2665.    
  7318 370-17-55       17    55.00       2688.    
     MULTIPLE LAYERS AND PROPORTIONS :    1, 0.90       2, 0.10
  7319 370-22-46       22    46.00       2656.    
     MULTIPLE LAYERS AND PROPORTIONS :    1, 0.90       2, 0.10
  7320 370-31-335      31    335.0       2635.    
     MULTIPLE LAYERS AND PROPORTIONS :    1, 0.90       2, 0.10
  7321 370-37-91       37    91.00       2621.    
     MULTIPLE LAYERS AND PROPORTIONS :    1, 0.90       2, 0.10
  7322 394-27-10       27   10.000       2646.    
  7323 389-42-355      42    355.0       2540.    
  7324 389-48-334      48    334.0       2565.    
  7325 389-56-10       56   10.000       2558.    
  7326 389-61-60       61    60.00       2538.    
  7327 389-66-48       66    48.00       2533.    
  7328 389-71-33       71    33.00       2536.    
  7329 382-48-334      48    334.0       2611.    
     MULTIPLE LAYERS AND PROPORTIONS :    2, 0.91       3, 0.09
  7330 395-17-4        17    4.000       2679.    
     MULTIPLE LAYERS AND PROPORTIONS :    1, 0.75       2, 0.25
  7331 395-27-13       27    13.00       2665.    
     MULTIPLE LAYERS AND PROPORTIONS :    1, 0.75       2, 0.25
  7332 395-38-6        38    6.000       2584.    
  7333 395-42-356      42    356.0       2555.    
  7334 395-48-334      48    334.0       2577.    
  7335 395-56-11       56    11.00       2573.    
  7336 395-61-60       61    60.00       2524.    
  7337 395-66-54       66    54.00       2507.    
  7338 395-71-33       71    33.00       2530.    
  7339 379-42-356      42    356.0       2562.    
  7340 379-48-334      48    334.0       2586.    
  7341 379-56-11       56    11.00       2583.    
  7342 385-7-49         7    49.00       2700.    
  7343 384-7-49         7    49.00       2698.    
  7344 374-1-358        1    358.0       2693.    
 Observation within a steady-state time step has been moved to the end of the time step.
  7345 362-38-6        38    6.000       2600.    
     MULTIPLE LAYERS AND PROPORTIONS :    2, 0.14       3, 0.86
  7346 362-42-355      42    355.0       2577.    
     MULTIPLE LAYERS AND PROPORTIONS :    2, 0.14       3, 0.86
  7347 362-48-334      48    334.0       2593.    
     MULTIPLE LAYERS AND PROPORTIONS :    2, 0.14       3, 0.86
  7348 362-56-10       56   10.000       2592.    
     MULTIPLE LAYERS AND PROPORTIONS :    2, 0.14       3, 0.86
  7349 362-61-60       61    60.00       2572.    
     MULTIPLE LAYERS AND PROPORTIONS :    2, 0.14       3, 0.86
  7350 362-66-48       66    48.00       2562.    
     MULTIPLE LAYERS AND PROPORTIONS :    2, 0.14       3, 0.86
  7351 362-71-33       71    33.00       2575.    
  7352 360-26-313      26    313.0       2647.    
     MULTIPLE LAYERS AND PROPORTIONS :    1, 0.37       2, 0.34       3, 0.29
  7353 360-38-6        38    6.000       2600.    
     MULTIPLE LAYERS AND PROPORTIONS :    1, 0.37       2, 0.34       3, 0.29
  7354 371-38-6        38    6.000       2598.    
     MULTIPLE LAYERS AND PROPORTIONS :    1, 0.46       2, 0.33       3, 0.21
  7355 371-42-355      42    355.0       2579.    
     MULTIPLE LAYERS AND PROPORTIONS :    1, 0.46       2, 0.33       3, 0.21
  7356 355-48-342      48    342.0       2616.    
  7357 355-56-13       56    13.00       2614.    
  7358 355-61-61       61    61.00       2600.    
  7359 355-66-32       66    32.00       2588.    
  7360 353-1-365        1    365.0       2705.    
 Observation within a steady-state time step has been moved to the end of the time step.
  7361 353-8-22         8    22.00       2704.    
  7362 353-11-304      11    304.0       2703.    
  7363 353-61-61       61    61.00       2610.    
  7364 353-66-32       66    32.00       2603.    
  7365 501-27-60       27    60.00       2646.    
  7366 501-37-32       37    32.00       2639.    
  7367 501-43-53       43    53.00       2640.    
  7368 501-48-336      48    336.0       2640.    
  7369 501-56-17       56    17.00       2639.    
  7370 501-60-320      60    320.0       2639.    
  7371 501-65-299      65    299.0       2639.    
  7372 501-71-365      71    365.0       2638.    
  7373 536-61-52       61    52.00       2579.    
  7374 536-66-18       66    18.00       2575.    
  7375 536-71-62       71    62.00       2575.    
  7376 540-43-50       43    50.00       2603.    
  7377 540-56-17       56    17.00       2588.    
  7378 451-37-32       37    32.00       2707.    
  7379 451-43-53       43    53.00       2715.    
  7380 451-48-336      48    336.0       2727.    
  7381 451-56-17       56    17.00       2744.    
  7382 451-61-52       61    52.00       2743.    
  7383 451-71-336      71    336.0       2764.    
  7384 419-71-61       71    61.00       2695.    
  7385 425-71-61       71    61.00       2749.    
  7386 397-48-336      48    336.0       2815.    
  7387 378-71-61       71    61.00       2711.    
  7388 477-7-99         7    99.00       2664.    
  7389 477-11-60       11    60.00       2664.    
  7390 477-17-53       17    53.00       2663.    
  7391 477-22-39       22    39.00       2662.    
  7392 477-32-6        32    6.000       2659.    
  7393 477-37-32       37    32.00       2648.    
  7394 478-48-335      48    335.0       2652.    
  7395 478-56-17       56    17.00       2645.    
  7396 218-42-337      42    337.0       3145.    
  7397 337-37-343      37    343.0       2555.    
  7398 337-43-14       43    14.00       2542.    
  7399 337-56-12       56    12.00       2564.    
  7400 337-61-61       61    61.00       2546.    
  7401 337-66-31       66    31.00       2536.    
  7402 328-56-11       56    11.00       2652.    
     MULTIPLE LAYERS AND PROPORTIONS :    1, 0.86       2, 0.14
  7403 328-61-61       61    61.00       2636.    
     MULTIPLE LAYERS AND PROPORTIONS :    1, 0.86       2, 0.14
  7404 328-66-32       66    32.00       2627.    
     MULTIPLE LAYERS AND PROPORTIONS :    1, 0.86       2, 0.14
  7405 329-1-365        1    365.0       2746.    
 Observation within a steady-state time step has been moved to the end of the time step.
  7406 327-1-365        1    365.0       2754.    
 Observation within a steady-state time step has been moved to the end of the time step.
  7407 326-26-319      26    319.0       2678.    
     MULTIPLE LAYERS AND PROPORTIONS :    1, 0.24       2, 0.12       3, 0.64
  7408 326-31-335      31    335.0       2666.    
     MULTIPLE LAYERS AND PROPORTIONS :    1, 0.24       2, 0.12       3, 0.64
  7409 326-38-32       38    32.00       2654.    
     MULTIPLE LAYERS AND PROPORTIONS :    1, 0.24       2, 0.13       3, 0.63
  7410 326-56-11       56    11.00       2626.    
     MULTIPLE LAYERS AND PROPORTIONS :    1, 0.24       2, 0.12       3, 0.64
  7411 326-61-54       61    54.00       2609.    
     MULTIPLE LAYERS AND PROPORTIONS :    1, 0.24       2, 0.12       3, 0.64
  7412 326-66-32       66    32.00       2598.    
     MULTIPLE LAYERS AND PROPORTIONS :    1, 0.24       2, 0.12       3, 0.64
  7413 321-43-14       43    14.00       2563.    
  7414 321-56-12       56    12.00       2596.    
  7415 322-1-358        1    358.0       2756.    
 Observation within a steady-state time step has been moved to the end of the time step.
  7416 322-6-340        6    340.0       2750.    
  7417 322-11-333      11    333.0       2738.    
  7418 322-16-301      16    301.0       2717.    
  7419 322-22-46       22    46.00       2703.    
  7420 322-27-32       27    32.00       2691.    
  7421 308-34-333      34    333.0       2660.    
     MULTIPLE LAYERS AND PROPORTIONS :    1, 0.11       2, 0.08       3, 0.81
  7422 316-7-283        7    283.0       2748.    
  7423 316-11-333      11    333.0       2738.    
  7424 316-16-301      16    301.0       2734.    
  7425 316-22-46       22    46.00       2699.    
  7426 316-27-11       27    11.00       2692.    
  7427 316-31-335      31    335.0       2674.    
  7428 316-38-32       38    32.00       2663.    
  7429 316-48-337      48    337.0       2639.    
  7430 316-56-11       56    11.00       2632.    
  7431 316-60-321      60    321.0       2616.    
  7432 316-65-300      65    300.0       2582.    
  7433 310-1-365        1    365.0       2757.    
 Observation within a steady-state time step has been moved to the end of the time step.
  7434 310-27-49       27    49.00       2692.    
  7435 310-56-11       56    11.00       2649.    
  7436 310-61-54       61    54.00       2633.    
  7437 310-66-32       66    32.00       2621.    
  7438 324-1-365        1    365.0       2740.    
 Observation within a steady-state time step has been moved to the end of the time step.
  7439 307-56-11       56    11.00       2680.    
  7440 335-1-365        1    365.0       2755.    
 Observation within a steady-state time step has been moved to the end of the time step.
  7441 333-56-9        56    9.000       2601.    
     MULTIPLE LAYERS AND PROPORTIONS :    2, 0.30       3, 0.70
  7442 323-56-11       56    11.00       2640.    
  7443 323-61-61       61    61.00       2610.    
  7444 311-17-5        17    5.000       2717.    
     MULTIPLE LAYERS AND PROPORTIONS :    1, 0.57       2, 0.27       3, 0.16
  7445 311-27-14       27    14.00       2682.    
     MULTIPLE LAYERS AND PROPORTIONS :    1, 0.57       2, 0.27       3, 0.16
  7446 314-56-25       56    25.00       2590.    
  7447 314-61-62       61    62.00       2580.    
  7448 318-48-343      48    343.0       2595.    
  7449 302-42-348      42    348.0       2592.    
  7450 301-22-62       22    62.00       2697.    
  7451 301-27-6        27    6.000       2674.    
  7452 301-38-32       38    32.00       2639.    
  7453 295-22-62       22    62.00       2740.    
  7454 295-38-5        38    5.000       2669.    
  7455 295-56-24       56    24.00       2659.    
  7456 295-66-32       66    32.00       2645.    
  7457 281-38-5        38    5.000       2639.    
  7458 281-42-348      42    348.0       2619.    
  7459 270-22-62       22    62.00       2711.    
  7460 270-38-32       38    32.00       2656.    
  7461 271-38-5        38    5.000       2645.    
  7462 271-42-348      42    348.0       2625.    
  7463 271-48-337      48    337.0       2650.    
  7464 271-56-10       56   10.000       2638.    
  7465 271-61-61       61    61.00       2623.    
  7466 271-66-61       66    61.00       2620.    
  7467 290-56-25       56    25.00       2624.    
     MULTIPLE LAYERS AND PROPORTIONS :    2, 0.33       3, 0.67
  7468 290-61-62       61    62.00       2610.    
     MULTIPLE LAYERS AND PROPORTIONS :    2, 0.33       3, 0.67
  7469 280-17-4        17    4.000       2729.    
  7470 280-27-14       27    14.00       2698.    
  7471 278-7-274        7    274.0       2772.    
     MULTIPLE LAYERS AND PROPORTIONS :    1, 0.77       2, 0.23
  7472 274-7-274        7    274.0       2767.    
     MULTIPLE LAYERS AND PROPORTIONS :    1, 0.84       2, 0.16
  7473 274-38-7        38    7.000       2670.    
     MULTIPLE LAYERS AND PROPORTIONS :    1, 0.84       2, 0.16
  7474 274-42-355      42    355.0       2647.    
     MULTIPLE LAYERS AND PROPORTIONS :    1, 0.84       2, 0.16
  7475 274-48-335      48    335.0       2671.    
     MULTIPLE LAYERS AND PROPORTIONS :    1, 0.84       2, 0.16
  7476 274-56-11       56    11.00       2668.    
     MULTIPLE LAYERS AND PROPORTIONS :    1, 0.84       2, 0.16
  7477 279-17-5        17    5.000       2745.    
     MULTIPLE LAYERS AND PROPORTIONS :    1, 0.65       2, 0.35
  7478 279-42-355      42    355.0       2665.    
     MULTIPLE LAYERS AND PROPORTIONS :    1, 0.65       2, 0.35
  7479 282-42-355      42    355.0       2655.    
     MULTIPLE LAYERS AND PROPORTIONS :    2, 0.19       3, 0.81
  7480 282-48-335      48    335.0       2666.    
     MULTIPLE LAYERS AND PROPORTIONS :    2, 0.19       3, 0.81
  7481 282-56-11       56    11.00       2674.    
     MULTIPLE LAYERS AND PROPORTIONS :    2, 0.19       3, 0.81
  7482 282-61-60       61    60.00       2656.    
     MULTIPLE LAYERS AND PROPORTIONS :    2, 0.19       3, 0.81
  7483 282-66-48       66    48.00       2645.    
     MULTIPLE LAYERS AND PROPORTIONS :    2, 0.19       3, 0.81
  7484 265-42-355      42    355.0       2668.    
     MULTIPLE LAYERS AND PROPORTIONS :    2, 0.13       3, 0.87
  7485 265-48-335      48    335.0       2690.    
     MULTIPLE LAYERS AND PROPORTIONS :    2, 0.13       3, 0.87
  7486 265-56-11       56    11.00       2688.    
     MULTIPLE LAYERS AND PROPORTIONS :    2, 0.13       3, 0.87
  7487 265-61-60       61    60.00       2671.    
     MULTIPLE LAYERS AND PROPORTIONS :    2, 0.13       3, 0.87
  7488 265-66-48       66    48.00       2660.    
     MULTIPLE LAYERS AND PROPORTIONS :    2, 0.13       3, 0.87
  7489 265-71-34       71    34.00       2645.    
     MULTIPLE LAYERS AND PROPORTIONS :    2, 0.13       3, 0.87
  7490 264-38-7        38    7.000       2690.    
  7491 264-42-355      42    355.0       2677.    
  7492 264-48-335      48    335.0       2699.    
  7493 264-56-11       56    11.00       2697.    
  7494 264-61-60       61    60.00       2681.    
  7495 264-66-48       66    48.00       2672.    
  7496 264-71-34       71    34.00       2654.    
  7497 268-1-365        1    365.0       2783.    
 Observation within a steady-state time step has been moved to the end of the time step.
  7498 268-38-7        38    7.000       2681.    
  7499 268-43-47       43    47.00       2665.    
  7500 268-48-335      48    335.0       2686.    
  7501 250-7-274        7    274.0       2785.    
     MULTIPLE LAYERS AND PROPORTIONS :    2, 0.02       3, 0.98
  7502 250-17-5        17    5.000       2760.    
     MULTIPLE LAYERS AND PROPORTIONS :    2, 0.02       3, 0.98
  7503 250-38-7        38    7.000       2695.    
     MULTIPLE LAYERS AND PROPORTIONS :    2, 0.02       3, 0.98
  7504 250-42-355      42    355.0       2675.    
     MULTIPLE LAYERS AND PROPORTIONS :    2, 0.02       3, 0.98
  7505 250-56-11       56    11.00       2696.    
     MULTIPLE LAYERS AND PROPORTIONS :    2, 0.02       3, 0.98
  7506 250-61-60       61    60.00       2679.    
     MULTIPLE LAYERS AND PROPORTIONS :    2, 0.02       3, 0.98
  7507 250-66-48       66    48.00       2666.    
     MULTIPLE LAYERS AND PROPORTIONS :    2, 0.02       3, 0.98
  7508 250-71-34       71    34.00       2638.    
     MULTIPLE LAYERS AND PROPORTIONS :    2, 0.02       3, 0.98
  7509 252-48-335      48    335.0       2702.    
     MULTIPLE LAYERS AND PROPORTIONS :    1, 0.52       2, 0.48
  7510 256-42-355      42    355.0       2668.    
     MULTIPLE LAYERS AND PROPORTIONS :    2, 0.11       3, 0.89
  7511 256-48-335      48    335.0       2696.    
     MULTIPLE LAYERS AND PROPORTIONS :    2, 0.11       3, 0.89
  7512 256-56-11       56    11.00       2694.    
     MULTIPLE LAYERS AND PROPORTIONS :    2, 0.11       3, 0.89
  7513 256-61-60       61    60.00       2678.    
     MULTIPLE LAYERS AND PROPORTIONS :    2, 0.11       3, 0.89
  7514 256-66-48       66    48.00       2664.    
     MULTIPLE LAYERS AND PROPORTIONS :    2, 0.11       3, 0.89
  7515 256-71-34       71    34.00       2646.    
     MULTIPLE LAYERS AND PROPORTIONS :    2, 0.11       3, 0.89
  7516 261-17-5        17    5.000       2756.    
     MULTIPLE LAYERS AND PROPORTIONS :    1, 0.40       2, 0.42       3, 0.18
  7517 261-17-64       17    64.00       2755.    
     MULTIPLE LAYERS AND PROPORTIONS :    1, 0.40       2, 0.42       3, 0.18
  7518 261-22-41       22    41.00       2740.    
     MULTIPLE LAYERS AND PROPORTIONS :    1, 0.40       2, 0.42       3, 0.18
  7519 262-48-338      48    338.0       2688.    
  7520 262-56-9        56    9.000       2670.    
  7521 262-61-62       61    62.00       2657.    
  7522 247-1-365        1    365.0       2801.    
 Observation within a steady-state time step has been moved to the end of the time step.
  7523 247-7-291        7    291.0       2788.    
  7524 247-27-11       27    11.00       2742.    
  7525 266-36-1        36   1.0000       2669.    
  7526 260-48-338      48    338.0       2665.    
  7527 259-56-9        56    9.000       2660.    
  7528 259-61-62       61    62.00       2645.    
  7529 259-66-47       66    47.00       2639.    
  7530 259-71-35       71    35.00       2623.    
  7531 269-38-4        38    4.000       2752.    
  7532 269-42-337      42    337.0       2753.    
  7533 269-48-337      48    337.0       2751.    
  7534 269-56-10       56   10.000       2789.    
  7535 269-61-61       61    61.00       2739.    
  7536 269-66-61       66    61.00       2740.    
  7537 257-56-10       56   10.000       2794.    
  7538 257-61-61       61    61.00       2727.    
  7539 257-66-61       66    61.00       2727.    
  7540 254-38-4        38    4.000       2773.    
  7541 254-42-337      42    337.0       2764.    
  7542 253-48-337      48    337.0       2672.    
     MULTIPLE LAYERS AND PROPORTIONS :    2, 0.03       3, 0.97
  7543 253-56-10       56   10.000       2666.    
     MULTIPLE LAYERS AND PROPORTIONS :    2, 0.03       3, 0.97
  7544 253-61-61       61    61.00       2650.    
     MULTIPLE LAYERS AND PROPORTIONS :    2, 0.03       3, 0.97
  7545 253-66-61       66    61.00       2644.    
     MULTIPLE LAYERS AND PROPORTIONS :    2, 0.03       3, 0.97
  7546 248-38-5        38    5.000       3160.    
  7547 248-42-337      42    337.0       3166.    
  7548 248-48-337      48    337.0       3163.    
  7549 241-48-337      48    337.0       2702.    
  7550 241-56-10       56   10.000       2707.    
  7551 241-61-61       61    61.00       2686.    
  7552 241-66-61       66    61.00       2675.    
  7553 229-48-337      48    337.0       2738.    
  7554 229-56-11       56    11.00       2746.    
  7555 242-38-4        38    4.000       2809.    
  7556 242-42-337      42    337.0       2781.    
  7557 243-56-10       56   10.000       2838.    
  7558 238-56-10       56   10.000       2830.    
  7559 235-56-10       56   10.000       2846.    
  7560 228-38-5        38    5.000       2831.    
  7561 228-42-348      42    348.0       2788.    
  7562 228-48-337      48    337.0       2776.    
  7563 230-48-337      48    337.0       2783.    
     MULTIPLE LAYERS AND PROPORTIONS :    2, 0.19       3, 0.81
  7564 230-56-10       56   10.000       2815.    
     MULTIPLE LAYERS AND PROPORTIONS :    2, 0.19       3, 0.81
  7565 232-31-335      31    335.0       2744.    
     MULTIPLE LAYERS AND PROPORTIONS :    1, 0.11       2, 0.21       3, 0.68
  7566 232-37-361      37    361.0       2729.    
     MULTIPLE LAYERS AND PROPORTIONS :    1, 0.11       2, 0.21       3, 0.68
  7567 232-48-337      48    337.0       2731.    
     MULTIPLE LAYERS AND PROPORTIONS :    2, 0.32       3, 0.68
  7568 232-56-9        56    9.000       2734.    
     MULTIPLE LAYERS AND PROPORTIONS :    2, 0.32       3, 0.68
  7569 232-61-62       61    62.00       2717.    
     MULTIPLE LAYERS AND PROPORTIONS :    2, 0.32       3, 0.68
  7570 232-66-47       66    47.00       2700.    
     MULTIPLE LAYERS AND PROPORTIONS :    2, 0.32       3, 0.68
  7571 232-71-35       71    35.00       2670.    
     MULTIPLE LAYERS AND PROPORTIONS :    2, 0.32       3, 0.68
  7572 237-17-5        17    5.000       2766.    
  7573 237-27-11       27    11.00       2752.    
  7574 237-37-357      37    357.0       2710.    
  7575 237-42-355      42    355.0       2690.    
  7576 237-48-335      48    335.0       2716.    
  7577 237-56-11       56    11.00       2716.    
  7578 237-61-60       61    60.00       2699.    
  7579 237-66-48       66    48.00       2684.    
  7580 237-71-34       71    34.00       2664.    
  7581 239-1-365        1    365.0       2805.    
 Observation within a steady-state time step has been moved to the end of the time step.
     MULTIPLE LAYERS AND PROPORTIONS :    1, 0.69       2, 0.31
  7582 239-42-355      42    355.0       2688.    
     MULTIPLE LAYERS AND PROPORTIONS :    1, 0.69       2, 0.31
  7583 240-22-1        22   1.0000       2744.    
     MULTIPLE LAYERS AND PROPORTIONS :    1, 0.17       2, 0.28       3, 0.55
  7584 240-38-7        38    7.000       2714.    
     MULTIPLE LAYERS AND PROPORTIONS :    1, 0.17       2, 0.28       3, 0.55
  7585 240-48-335      48    335.0       2719.    
     MULTIPLE LAYERS AND PROPORTIONS :    1, 0.17       2, 0.28       3, 0.55
  7586 240-56-10       56   10.000       2718.    
     MULTIPLE LAYERS AND PROPORTIONS :    1, 0.17       2, 0.28       3, 0.55
  7587 240-66-48       66    48.00       2686.    
     MULTIPLE LAYERS AND PROPORTIONS :    1, 0.17       2, 0.28       3, 0.55
  7588 240-71-34       71    34.00       2661.    
     MULTIPLE LAYERS AND PROPORTIONS :    1, 0.17       2, 0.28       3, 0.55
  7589 231-48-335      48    335.0       2732.    
  7590 231-56-10       56   10.000       2732.    
  7591 233-17-5        17    5.000       2781.    
     MULTIPLE LAYERS AND PROPORTIONS :    1, 0.51       2, 0.44       3, 0.05
  7592 233-38-7        38    7.000       2712.    
     MULTIPLE LAYERS AND PROPORTIONS :    1, 0.51       2, 0.44       3, 0.05
  7593 233-42-355      42    355.0       2695.    
     MULTIPLE LAYERS AND PROPORTIONS :    1, 0.51       2, 0.44       3, 0.05
  7594 234-42-355      42    355.0       2694.    
     MULTIPLE LAYERS AND PROPORTIONS :    1, 0.14       2, 0.11       3, 0.75
  7595 234-48-335      48    335.0       2714.    
     MULTIPLE LAYERS AND PROPORTIONS :    1, 0.14       2, 0.11       3, 0.75
  7596 234-56-10       56   10.000       2718.    
     MULTIPLE LAYERS AND PROPORTIONS :    1, 0.14       2, 0.11       3, 0.75
  7597 234-60-322      60    322.0       2701.    
     MULTIPLE LAYERS AND PROPORTIONS :    1, 0.14       2, 0.11       3, 0.75
  7598 234-66-48       66    48.00       2688.    
     MULTIPLE LAYERS AND PROPORTIONS :    1, 0.15       2, 0.10       3, 0.75
  7599 234-71-34       71    34.00       2667.    
     MULTIPLE LAYERS AND PROPORTIONS :    1, 0.15       2, 0.10       3, 0.75
  7600 213-1-310        1    310.0       2835.    
 Observation within a steady-state time step has been moved to the end of the time step.
  7601 213-6-310        6    310.0       2829.    
  7602 213-27-11       27    11.00       2792.    
  7603 213-42-355      42    355.0       2739.    
  7604 216-7-291        7    291.0       2818.    
     MULTIPLE LAYERS AND PROPORTIONS :    1, 0.65       2, 0.35
  7605 216-22-32       22    32.00       2787.    
     MULTIPLE LAYERS AND PROPORTIONS :    1, 0.65       2, 0.35
  7606 216-27-11       27    11.00       2793.    
     MULTIPLE LAYERS AND PROPORTIONS :    1, 0.65       2, 0.35
  7607 216-38-7        38    7.000       2738.    
     MULTIPLE LAYERS AND PROPORTIONS :    1, 0.65       2, 0.35
  7608 216-42-355      42    355.0       2732.    
     MULTIPLE LAYERS AND PROPORTIONS :    1, 0.65       2, 0.35
  7609 210-1-365        1    365.0       2843.    
 Observation within a steady-state time step has been moved to the end of the time step.
  7610 210-38-7        38    7.000       2742.    
  7611 210-42-355      42    355.0       2745.    
  7612 210-48-335      48    335.0       2770.    
  7613 210-56-11       56    11.00       2775.    
  7614 189-17-6        17    6.000       2827.    
     MULTIPLE LAYERS AND PROPORTIONS :    1, 0.75       2, 0.25
  7615 189-22-54       22    54.00       2812.    
     MULTIPLE LAYERS AND PROPORTIONS :    1, 0.75       2, 0.25
  7616 189-27-11       27    11.00       2814.    
     MULTIPLE LAYERS AND PROPORTIONS :    1, 0.75       2, 0.25
  7617 189-38-7        38    7.000       2772.    
     MULTIPLE LAYERS AND PROPORTIONS :    1, 0.75       2, 0.25
  7618 189-42-355      42    355.0       2762.    
     MULTIPLE LAYERS AND PROPORTIONS :    1, 0.75       2, 0.25
  7619 189-48-335      48    335.0       2793.    
     MULTIPLE LAYERS AND PROPORTIONS :    1, 0.75       2, 0.25
  7620 189-56-9        56    9.000       2797.    
     MULTIPLE LAYERS AND PROPORTIONS :    1, 0.75       2, 0.25
  7621 189-61-60       61    60.00       2779.    
     MULTIPLE LAYERS AND PROPORTIONS :    1, 0.75       2, 0.25
  7622 189-66-48       66    48.00       2761.    
     MULTIPLE LAYERS AND PROPORTIONS :    1, 0.75       2, 0.25
  7623 189-71-34       71    34.00       2738.    
     MULTIPLE LAYERS AND PROPORTIONS :    1, 0.75       2, 0.25
  7624 200-38-7        38    7.000       2760.    
     MULTIPLE LAYERS AND PROPORTIONS :    2, 0.18       3, 0.82
  7625 200-42-356      42    356.0       2747.    
     MULTIPLE LAYERS AND PROPORTIONS :    2, 0.18       3, 0.82
  7626 200-48-335      48    335.0       2776.    
     MULTIPLE LAYERS AND PROPORTIONS :    2, 0.18       3, 0.82
  7627 200-56-9        56    9.000       2778.    
     MULTIPLE LAYERS AND PROPORTIONS :    2, 0.18       3, 0.82
  7628 200-61-60       61    60.00       2756.    
     MULTIPLE LAYERS AND PROPORTIONS :    2, 0.18       3, 0.82
  7629 200-66-48       66    48.00       2745.    
     MULTIPLE LAYERS AND PROPORTIONS :    2, 0.18       3, 0.82
  7630 201-38-7        38    7.000       2774.    
     MULTIPLE LAYERS AND PROPORTIONS :    2, 0.10       3, 0.90
  7631 201-42-356      42    356.0       2759.    
     MULTIPLE LAYERS AND PROPORTIONS :    2, 0.08       3, 0.92
  7632 201-48-335      48    335.0       2782.    
     MULTIPLE LAYERS AND PROPORTIONS :    2, 0.08       3, 0.92
  7633 201-56-11       56    11.00       2786.    
     MULTIPLE LAYERS AND PROPORTIONS :    2, 0.08       3, 0.92
  7634 201-61-60       61    60.00       2769.    
     MULTIPLE LAYERS AND PROPORTIONS :    2, 0.08       3, 0.92
  7635 201-66-48       66    48.00       2753.    
     MULTIPLE LAYERS AND PROPORTIONS :    2, 0.08       3, 0.92
  7636 201-71-34       71    34.00       2730.    
     MULTIPLE LAYERS AND PROPORTIONS :    2, 0.08       3, 0.92
  7637 199-17-5        17    5.000       2814.    
  7638 199-22-54       22    54.00       2800.    
  7639 199-27-11       27    11.00       2801.    
  7640 199-38-7        38    7.000       2764.    
  7641 199-42-356      42    356.0       2749.    
  7642 199-48-335      48    335.0       2776.    
  7643 217-38-5        38    5.000       2864.    
  7644 217-42-348      42    348.0       2813.    
  7645 220-38-5        38    5.000       2851.    
     MULTIPLE LAYERS AND PROPORTIONS :    2, 0.13       3, 0.87
  7646 220-42-348      42    348.0       2800.    
     MULTIPLE LAYERS AND PROPORTIONS :    2, 0.13       3, 0.87
  7647 220-56-10       56   10.000       2804.    
     MULTIPLE LAYERS AND PROPORTIONS :    2, 0.13       3, 0.87
  7648 220-61-61       61    61.00       2795.    
     MULTIPLE LAYERS AND PROPORTIONS :    2, 0.13       3, 0.87
  7649 220-66-61       66    61.00       2776.    
     MULTIPLE LAYERS AND PROPORTIONS :    2, 0.13       3, 0.87
  7650 204-38-5        38    5.000       2852.    
  7651 204-42-348      42    348.0       2799.    
  7652 202-38-5        38    5.000       2854.    
     MULTIPLE LAYERS AND PROPORTIONS :    2, 0.17       3, 0.83
  7653 202-42-348      42    348.0       2802.    
     MULTIPLE LAYERS AND PROPORTIONS :    2, 0.17       3, 0.83
  7654 198-39-190      39    190.0       2868.    
     MULTIPLE LAYERS AND PROPORTIONS :    2, 0.25       3, 0.75
  7655 194-39-138      39    138.0       2833.    
     MULTIPLE LAYERS AND PROPORTIONS :    2, 0.39       3, 0.61
  7656 190-56-10       56   10.000       2810.    
  7657 190-61-61       61    61.00       2802.    
  7658 192-38-5        38    5.000       2853.    
  7659 192-42-337      42    337.0       2813.    
  7660 191-39-212      39    212.0       2856.    
     MULTIPLE LAYERS AND PROPORTIONS :    2, 0.28       3, 0.72
  7661 193-38-5        38    5.000       2848.    
     MULTIPLE LAYERS AND PROPORTIONS :    2, 0.09       3, 0.91
  7662 193-42-348      42    348.0       2815.    
     MULTIPLE LAYERS AND PROPORTIONS :    2, 0.09       3, 0.91
  7663 188-56-10       56   10.000       2883.    
  7664 188-61-61       61    61.00       2874.    
  7665 188-66-61       66    61.00       2864.    
  7666 187-56-10       56   10.000       2840.    
  7667 187-61-61       61    61.00       2840.    
  7668 187-66-62       66    62.00       2815.    
  7669 179-48-337      48    337.0       2866.    
  7670 14-1-365         1    365.0       2884.    
 Observation within a steady-state time step has been moved to the end of the time step.
  7671 185-1-365        1    365.0       2853.    
 Observation within a steady-state time step has been moved to the end of the time step.
  7672 185-10-60       10    60.00       2822.    
  7673 185-38-7        38    7.000       2754.    
  7674 185-42-355      42    355.0       2750.    
  7675 181-38-7        38    7.000       2780.    
     MULTIPLE LAYERS AND PROPORTIONS :    2, 0.26       3, 0.74
  7676 181-48-335      48    335.0       2809.    
     MULTIPLE LAYERS AND PROPORTIONS :    2, 0.26       3, 0.74
  7677 181-56-11       56    11.00       2813.    
     MULTIPLE LAYERS AND PROPORTIONS :    2, 0.26       3, 0.74
  7678 181-61-60       61    60.00       2798.    
     MULTIPLE LAYERS AND PROPORTIONS :    2, 0.26       3, 0.74
  7679 181-66-48       66    48.00       2777.    
     MULTIPLE LAYERS AND PROPORTIONS :    2, 0.26       3, 0.74
  7680 181-71-34       71    34.00       2755.    
     MULTIPLE LAYERS AND PROPORTIONS :    2, 0.26       3, 0.74
  7681 186-48-335      48    335.0       2805.    
  7682 183-48-335      48    335.0       2811.    
  7683 182-42-355      42    355.0       2777.    
     MULTIPLE LAYERS AND PROPORTIONS :    2, 0.27       3, 0.73
  7684 182-48-335      48    335.0       2810.    
     MULTIPLE LAYERS AND PROPORTIONS :    2, 0.27       3, 0.73
  7685 182-56-9        56    9.000       2809.    
     MULTIPLE LAYERS AND PROPORTIONS :    2, 0.27       3, 0.73
  7686 182-61-60       61    60.00       2795.    
     MULTIPLE LAYERS AND PROPORTIONS :    2, 0.27       3, 0.73
  7687 182-66-48       66    48.00       2776.    
     MULTIPLE LAYERS AND PROPORTIONS :    2, 0.27       3, 0.73
  7688 182-71-34       71    34.00       2755.    
     MULTIPLE LAYERS AND PROPORTIONS :    2, 0.27       3, 0.73
  7689 180-48-335      48    335.0       2822.    
  7690 184-12-80       12    80.00       2841.    
  7691 184-17-60       17    60.00       2837.    
  7692 184-22-62       22    62.00       2827.    
  7693 184-27-6        27    6.000       2812.    
  7694 184-31-335      31    335.0       2811.    
  7695 184-37-32       37    32.00       2792.    
  7696 184-42-299      42    299.0       2779.    
  7697 184-48-337      48    337.0       2809.    
  7698 184-56-12       56    12.00       2811.    
  7699 184-66-55       66    55.00       2790.    
  7700 305-56-11       56    11.00       2722.    
  7701 305-61-61       61    61.00       2678.    
  7702 305-66-32       66    32.00       2682.    
  7703 325-37-344      37    344.0       2646.    
  7704 325-43-14       43    14.00       2634.    
  7705 325-48-342      48    342.0       2649.    
  7706 325-56-12       56    12.00       2656.    
  7707 325-61-61       61    61.00       2621.    
  7708 325-66-31       66    31.00       2611.    
  7709 292-61-61       61    61.00       2675.    
  7710 296-26-321      26    321.0       2728.    
  7711 296-31-335      31    335.0       2715.    
  7712 296-37-344      37    344.0       2709.    
  7713 296-43-14       43    14.00       2705.    
  7714 296-48-342      48    342.0       2701.    
  7715 296-56-11       56    11.00       2697.    
  7716 296-60-321      60    321.0       2692.    
  7717 296-65-300      65    300.0       2686.    
     MULTIPLE LAYERS AND PROPORTIONS :    1, 0.20       2, 0.80
  7718 297-17-4        17    4.000       2731.    
     MULTIPLE LAYERS AND PROPORTIONS :    1, 0.20       2, 0.80
  7719 297-22-54       22    54.00       2722.    
     MULTIPLE LAYERS AND PROPORTIONS :    1, 0.20       2, 0.80
  7720 297-27-11       27    11.00       2713.    
     MULTIPLE LAYERS AND PROPORTIONS :    1, 0.20       2, 0.80
  7721 297-56-12       56    12.00       2681.    
  7722 297-61-61       61    61.00       2671.    
  7723 297-66-32       66    32.00       2665.    
  7724 272-33-177      33    177.0       2743.    
  7725 245-48-342      48    342.0       2722.    
  7726 245-56-12       56    12.00       2719.    
  7727 221-33-346      33    346.0       2759.    
     MULTIPLE LAYERS AND PROPORTIONS :    1, 0.25       2, 0.75
  7728 222-48-343      48    343.0       2744.    
  7729 222-56-9        56    9.000       2758.    
  7730 222-61-60       61    60.00       2739.    
  7731 222-66-54       66    54.00       2735.    
  7732 222-71-34       71    34.00       2721.    
  7733 223-48-343      48    343.0       2746.    
     MULTIPLE LAYERS AND PROPORTIONS :    2, 0.87       3, 0.13
  7734 223-56-9        56    9.000       2750.    
     MULTIPLE LAYERS AND PROPORTIONS :    2, 0.87       3, 0.13
  7735 223-61-60       61    60.00       2738.    
     MULTIPLE LAYERS AND PROPORTIONS :    2, 0.87       3, 0.13
  7736 223-71-35       71    35.00       2720.    
     MULTIPLE LAYERS AND PROPORTIONS :    2, 0.87       3, 0.13
  7737 219-71-365      71    365.0       2723.    
  7738 102-43-8        43    8.000       2972.    
  7739 102-48-344      48    344.0       2995.    
  7740 92-71-40        71    40.00       2989.    
  7741 177-17-6        17    6.000       2858.    
  7742 177-38-7        38    7.000       2790.    
  7743 177-42-355      42    355.0       2803.    
  7744 177-48-335      48    335.0       2861.    
  7745 169-38-4        38    4.000       2773.    
     MULTIPLE LAYERS AND PROPORTIONS :    1, 0.24       2, 0.32       3, 0.44
  7746 169-42-334      42    334.0       2779.    
     MULTIPLE LAYERS AND PROPORTIONS :    1, 0.24       2, 0.32       3, 0.44
  7747 169-56-11       56    11.00       2818.    
     MULTIPLE LAYERS AND PROPORTIONS :    1, 0.24       2, 0.32       3, 0.44
  7748 168-1-365        1    365.0       2887.    
 Observation within a steady-state time step has been moved to the end of the time step.
     MULTIPLE LAYERS AND PROPORTIONS :    1, 0.82       2, 0.18
  7749 170-38-7        38    7.000       2782.    
  7750 170-42-355      42    355.0       2793.    
     MULTIPLE LAYERS AND PROPORTIONS :    1, 0.07       2, 0.10       3, 0.83
  7751 170-48-335      48    335.0       2831.    
     MULTIPLE LAYERS AND PROPORTIONS :    1, 0.07       2, 0.10       3, 0.83
  7752 170-56-9        56    9.000       2827.    
     MULTIPLE LAYERS AND PROPORTIONS :    1, 0.07       2, 0.10       3, 0.83
  7753 170-61-60       61    60.00       2821.    
     MULTIPLE LAYERS AND PROPORTIONS :    1, 0.07       2, 0.10       3, 0.83
  7754 170-66-48       66    48.00       2798.    
     MULTIPLE LAYERS AND PROPORTIONS :    1, 0.07       2, 0.10       3, 0.83
  7755 170-71-34       71    34.00       2780.    
  7756 176-1-280        1    280.0       2880.    
 Observation within a steady-state time step has been moved to the end of the time step.
     MULTIPLE LAYERS AND PROPORTIONS :    1, 0.77       2, 0.23
  7757 176-6-340        6    340.0       2875.    
     MULTIPLE LAYERS AND PROPORTIONS :    1, 0.77       2, 0.23
  7758 176-11-333      11    333.0       2858.    
     MULTIPLE LAYERS AND PROPORTIONS :    1, 0.77       2, 0.23
  7759 176-16-332      16    332.0       2862.    
     MULTIPLE LAYERS AND PROPORTIONS :    1, 0.77       2, 0.23
  7760 176-38-7        38    7.000       2791.    
     MULTIPLE LAYERS AND PROPORTIONS :    1, 0.77       2, 0.23
  7761 172-12-80       12    80.00       2883.    
  7762 172-17-60       17    60.00       2875.    
  7763 172-22-62       22    62.00       2868.    
  7764 172-27-6        27    6.000       2860.    
  7765 172-31-344      31    344.0       2859.    
  7766 172-36-335      36    335.0       2848.    
  7767 172-48-335      48    335.0       2848.    
  7768 172-56-11       56    11.00       2853.    
  7769 172-61-59       61    59.00       2852.    
  7770 171-43-47       43    47.00       2829.    
  7771 171-48-335      48    335.0       2851.    
  7772 171-56-11       56    11.00       2853.    
  7773 171-60-322      60    322.0       2853.    
  7774 171-65-298      65    298.0       2837.    
  7775 171-71-13       71    13.00       2807.    
  7776 164-33-152      33    152.0       2848.    
     MULTIPLE LAYERS AND PROPORTIONS :    1, 0.12       2, 0.88
  7777 167-48-335      48    335.0       2864.    
  7778 167-56-11       56    11.00       2866.    
  7779 166-61-56       61    56.00       2871.    
  7780 166-66-53       66    53.00       2858.    
  7781 166-71-35       71    35.00       2829.    
  7782 178-48-336      48    336.0       2871.    
  7783 178-56-11       56    11.00       2816.    
  7784 174-48-336      48    336.0       2870.    
  7785 161-48-336      48    336.0       2887.    
  7786 161-56-11       56    11.00       2895.    
  7787 161-61-56       61    56.00       2887.    
  7788 161-66-54       66    54.00       2878.    
  7789 161-71-41       71    41.00       2860.    
  7790 153-48-335      48    335.0       2915.    
  7791 163-48-336      48    336.0       2902.    
  7792 163-56-11       56    11.00       2903.    
  7793 163-61-59       61    59.00       2896.    
  7794 163-66-54       66    54.00       2886.    
  7795 163-71-41       71    41.00       2865.    
  7796 156-48-336      48    336.0       2913.    
  7797 156-56-11       56    11.00       2916.    
  7798 157-1-358        1    358.0       2927.    
 Observation within a steady-state time step has been moved to the end of the time step.
  7799 157-22-54       22    54.00       2887.    
  7800 157-27-11       27    11.00       2885.    
  7801 157-31-348      31    348.0       2874.    
  7802 157-37-22       37    22.00       2831.    
  7803 157-43-47       43    47.00       2842.    
  7804 157-48-335      48    335.0       2888.    
  7805 157-56-9        56    9.000       2903.    
  7806 157-60-322      60    322.0       2872.    
  7807 157-65-298      65    298.0       2859.    
  7808 157-71-365      71    365.0       2824.    
  7809 154-42-341      42    341.0       2833.    
  7810 159-38-4        38    4.000       2783.    
     MULTIPLE LAYERS AND PROPORTIONS :    1, 0.15       2, 0.36       3, 0.49
  7811 159-56-11       56    11.00       2840.    
     MULTIPLE LAYERS AND PROPORTIONS :    1, 0.15       2, 0.36       3, 0.49
  7812 147-38-4        38    4.000       2820.    
     MULTIPLE LAYERS AND PROPORTIONS :    1, 0.22       2, 0.26       3, 0.52
  7813 147-42-334      42    334.0       2820.    
     MULTIPLE LAYERS AND PROPORTIONS :    1, 0.22       2, 0.26       3, 0.52
  7814 147-56-11       56    11.00       2889.    
     MULTIPLE LAYERS AND PROPORTIONS :    1, 0.22       2, 0.26       3, 0.52
  7815 149-1-280        1    280.0       2945.    
 Observation within a steady-state time step has been moved to the end of the time step.
  7816 150-48-335      48    335.0       2923.    
  7817 150-56-9        56    9.000       2926.    
  7818 137-48-335      48    335.0       2944.    
  7819 137-56-9        56    9.000       2949.    
  7820 137-61-56       61    56.00       2937.    
  7821 137-66-53       66    53.00       2922.    
  7822 136-38-4        38    4.000       2860.    
     MULTIPLE LAYERS AND PROPORTIONS :    2, 0.22       3, 0.78
  7823 136-42-341      42    341.0       2880.    
     MULTIPLE LAYERS AND PROPORTIONS :    2, 0.22       3, 0.78
  7824 136-56-11       56    11.00       2894.    
     MULTIPLE LAYERS AND PROPORTIONS :    2, 0.22       3, 0.78
  7825 152-48-336      48    336.0       2949.    
  7826 129-17-5        17    5.000       2953.    
  7827 129-27-11       27    11.00       2944.    
  7828 123-42-348      42    348.0       2909.    
     MULTIPLE LAYERS AND PROPORTIONS :    2, 0.26       3, 0.74
  7829 128-42-348      42    348.0       2921.    
  7830 128-56-11       56    11.00       2970.    
  7831 133-12-362      12    362.0       2936.    
  7832 133-17-61       17    61.00       2933.    
  7833 133-27-6        27    6.000       2925.    
  7834 133-31-335      31    335.0       2913.    
  7835 133-38-4        38    4.000       2866.    
  7836 133-42-341      42    341.0       2885.    
  7837 133-48-335      48    335.0       2937.    
  7838 133-56-9        56    9.000       2956.    
  7839 133-71-365      71    365.0       2871.    
  7840 127-1-365        1    365.0       2959.    
 Observation within a steady-state time step has been moved to the end of the time step.
  7841 127-17-1        17   1.0000       2959.    
  7842 130-42-341      42    341.0       2915.    
     MULTIPLE LAYERS AND PROPORTIONS :    2, 0.39       3, 0.61
  7843 130-48-335      48    335.0       2949.    
     MULTIPLE LAYERS AND PROPORTIONS :    2, 0.39       3, 0.61
  7844 130-56-9        56    9.000       2964.    
     MULTIPLE LAYERS AND PROPORTIONS :    2, 0.39       3, 0.61
  7845 126-27-11       27    11.00       2934.    
  7846 135-48-336      48    336.0       2897.    
  7847 135-56-9        56    9.000       2902.    
  7848 122-48-336      48    336.0       2920.    
  7849 120-12-310      12    310.0       2972.    
  7850 120-17-5        17    5.000       2968.    
  7851 120-27-6        27    6.000       2963.    
  7852 120-31-335      31    335.0       2964.    
  7853 120-37-32       37    32.00       2931.    
  7854 120-42-341      42    341.0       2947.    
  7855 120-48-336      48    336.0       2976.    
  7856 120-56-10       56   10.000       2983.    
  7857 120-61-59       61    59.00       2968.    
  7858 120-65-292      65    292.0       2963.    
  7859 120-71-365      71    365.0       2938.    
  7860 118-38-4        38    4.000       2903.    
     MULTIPLE LAYERS AND PROPORTIONS :    2, 0.23       3, 0.77
  7861 118-42-341      42    341.0       2933.    
     MULTIPLE LAYERS AND PROPORTIONS :    2, 0.22       3, 0.78
  7862 118-48-349      48    349.0       2960.    
     MULTIPLE LAYERS AND PROPORTIONS :    2, 0.22       3, 0.78
  7863 118-56-10       56   10.000       2964.    
     MULTIPLE LAYERS AND PROPORTIONS :    2, 0.22       3, 0.78
  7864 107-27-69       27    69.00       2989.    
  7865 114-48-336      48    336.0       2957.    
     MULTIPLE LAYERS AND PROPORTIONS :    1, 0.29       2, 0.43       3, 0.28
  7866 114-56-10       56   10.000       2966.    
     MULTIPLE LAYERS AND PROPORTIONS :    1, 0.29       2, 0.43       3, 0.28
  7867 112-43-8        43    8.000       2956.    
  7868 112-48-335      48    335.0       2982.    
  7869 112-56-9        56    9.000       2988.    
  7870 112-61-52       61    52.00       2975.    
  7871 112-66-45       66    45.00       2967.    
  7872 112-71-13       71    13.00       2956.    
  7873 104-60-299      60    299.0       2981.    
  7874 104-65-292      65    292.0       2974.    
  7875 100-22-61       22    61.00       2977.    
  7876 101-61-53       61    53.00       2981.    
  7877 97-22-54        22    54.00       2975.    
  7878 97-27-10        27   10.000       2963.    
  7879 98-43-8         43    8.000       2975.    
  7880 98-48-348       48    348.0       3003.    
  7881 98-56-10        56   10.000       3007.    
  7882 98-61-52        61    52.00       2997.    
  7883 98-66-45        66    45.00       2989.    
  7884 105-43-69       43    69.00       2982.    
  7885 105-48-348      48    348.0       2993.    
  7886 105-56-10       56   10.000       3005.    
  7887 105-61-55       61    55.00       2989.    
  7888 105-66-45       66    45.00       2983.    
  7889 99-5-1           5   1.0000       2994.    
  7890 106-56-10       56   10.000       2952.    
  7891 106-61-59       61    59.00       2947.    
  7892 106-66-45       66    45.00       2941.    
  7893 106-71-40       71    40.00       2928.    
  7894 95-71-40        71    40.00       2970.    
  7895 3393-25-338     25    338.0       1492.    
  7896 3312-25-338     25    338.0       1558.    
  7897 3288-25-341     25    341.0       1610.    
  7898 3282-25-341     25    341.0       1611.    
  7899 3259-25-341     25    341.0       1649.    
     MULTIPLE LAYERS AND PROPORTIONS :    2, 0.69       3, 0.31
  7900 3222-25-229     25    229.0       1675.    
  7901 3213-25-337     25    337.0       1690.    
  7902 3199-25-339     25    339.0       1687.    
     MULTIPLE LAYERS AND PROPORTIONS :    2, 0.82       3, 0.18
  7903 3175-25-339     25    339.0       1683.    
  7904 3170-25-342     25    342.0       1701.    
  7905 3200-25-336     25    336.0       1748.    
     MULTIPLE LAYERS AND PROPORTIONS :    2, 0.43       3, 0.57
  7906 3154-25-336     25    336.0       1687.    
  7907 3138-25-336     25    336.0       1690.    
  7908 3046-25-344     25    344.0       1693.    
  7909 3036-25-344     25    344.0       1702.    
  7910 3038-25-339     25    339.0       1713.    
     MULTIPLE LAYERS AND PROPORTIONS :    1, 0.19       2, 0.77       3, 0.04
  7911 2684-25-3       25    3.000       1753.    
  7912 2919-25-351     25    351.0       1795.    
  7913 2719-25-113     25    113.0       2216.    
  7914 1933-25-180     25    180.0       2246.    
     MULTIPLE LAYERS AND PROPORTIONS :    1, 0.55       2, 0.45
  7915 1387-25-60      25    60.00       2343.    
     MULTIPLE LAYERS AND PROPORTIONS :    2, 0.46       3, 0.54
  7916 1427-25-27      25    27.00       2341.    
  7917 1661-25-60      25    60.00       2359.    
  7918 1390-25-365     25    365.0       2362.    
     MULTIPLE LAYERS AND PROPORTIONS :    1, 0.42       2, 0.58
  7919 1904-25-317     25    317.0       2511.    
  7920 1379-25-91      25    91.00       2552.    
  7921 1796-25-321     25    321.0       2637.    
  7922 1753-25-321     25    321.0       2623.    
  7923 1705-25-328     25    328.0       2647.    
  7924 1064-25-125     25    125.0       2385.    
     MULTIPLE LAYERS AND PROPORTIONS :    2, 0.31       3, 0.69
  7925 831-25-335      25    335.0       2495.    
     MULTIPLE LAYERS AND PROPORTIONS :    1, 0.45       2, 0.55
  7926 1066-25-335     25    335.0       2783.    
  7927 723-25-363      25    363.0       2420.    
  7928 568-25-307      25    307.0       2578.    
     MULTIPLE LAYERS AND PROPORTIONS :    1, 0.68       2, 0.32
  7929 544-25-309      25    309.0       2569.    
  7930 780-25-329      25    329.0       2673.    
  7931 526-25-307      25    307.0       2566.    
  7932 370-25-308      25    308.0       2652.    
     MULTIPLE LAYERS AND PROPORTIONS :    1, 0.90       2, 0.10
  7933 265-25-7        25    7.000       2718.    
     MULTIPLE LAYERS AND PROPORTIONS :    2, 0.13       3, 0.87
  7934 266-25-43       25    43.00       2692.    
  7935 232-25-314      25    314.0       2758.    
     MULTIPLE LAYERS AND PROPORTIONS :    1, 0.11       2, 0.21       3, 0.68
  7936 100-25-316      25    316.0       2977.    
  7937 3205-26-8       26    8.000       1660.    
  7938 3174-26-7       26    7.000       1673.    
  7939 3163-26-13      26    13.00       1681.    
  7940 3100-26-12      26    12.00       1686.    
     MULTIPLE LAYERS AND PROPORTIONS :    2, 0.76       3, 0.24
  7941 3097-26-7       26    7.000       1674.    
  7942 3096-26-12      26    12.00       1693.    
  7943 3053-26-11      26    11.00       1688.    
  7944 3065-26-12      26    12.00       1701.    
     MULTIPLE LAYERS AND PROPORTIONS :    2, 0.27       3, 0.73
  7945 3033-26-11      26    11.00       1699.    
     MULTIPLE LAYERS AND PROPORTIONS :    2, 0.22       3, 0.78
  7946 2989-26-12      26    12.00       1709.    
  7947 3083-26-152     26    152.0       1700.    
     MULTIPLE LAYERS AND PROPORTIONS :    2, 0.60       3, 0.40
  7948 3040-26-13      26    13.00       1692.    
  7949 2997-26-123     26    123.0       2239.    
  7950 3016-26-123     26    123.0       2282.    
  7951 2953-26-14      26    14.00       1718.    
  7952 2963-26-14      26    14.00       1715.    
  7953 2968-26-13      26    13.00       1779.    
     MULTIPLE LAYERS AND PROPORTIONS :    2, 0.99       3, 0.01
  7954 2906-26-13      26    13.00       1755.    
     MULTIPLE LAYERS AND PROPORTIONS :    2, 0.77       3, 0.23
  7955 2905-26-13      26    13.00       1726.    
     MULTIPLE LAYERS AND PROPORTIONS :    1, 0.55       2, 0.45
  7956 2874-26-14      26    14.00       1767.    
  7957 2780-26-13      26    13.00       1747.    
  7958 2779-26-13      26    13.00       1763.    
     MULTIPLE LAYERS AND PROPORTIONS :    2, 0.37       3, 0.63
  7959 2787-26-14      26    14.00       1788.    
  7960 2790-26-14      26    14.00       1786.    
     MULTIPLE LAYERS AND PROPORTIONS :    2, 0.52       3, 0.48
  7961 2772-26-13      26    13.00       1750.    
  7962 2639-26-13      26    13.00       1780.    
     MULTIPLE LAYERS AND PROPORTIONS :    2, 0.39       3, 0.61
  7963 2974-26-15      26    15.00       1784.    
  7964 2937-26-14      26    14.00       1785.    
     MULTIPLE LAYERS AND PROPORTIONS :    2, 0.86       3, 0.14
  7965 2885-26-14      26    14.00       1764.    
  7966 2867-26-14      26    14.00       1706.    
  7967 2837-26-14      26    14.00       1710.    
  7968 2748-26-15      26    15.00       1763.    
  7969 2694-26-15      26    15.00       1833.    
  7970 2933-26-15      26    15.00       1711.    
  7971 2851-26-14      26    14.00       1742.    
  7972 2711-26-15      26    15.00       1803.    
  7973 2928-26-18      26    18.00       1795.    
  7974 2811-26-14      26    14.00       1815.    
  7975 2808-26-18      26    18.00       1802.    
  7976 2766-26-47      26    47.00       2059.    
  7977 2789-26-18      26    18.00       1813.    
  7978 2696-26-18      26    18.00       2033.    
  7979 2977-26-123     26    123.0       2364.    
     MULTIPLE LAYERS AND PROPORTIONS :    2, 0.89       3, 0.11
  7980 2914-26-120     26    120.0       2139.    
  7981 2930-26-123     26    123.0       2338.    
  7982 2898-26-120     26    120.0       2134.    
  7983 2841-26-120     26    120.0       2191.    
  7984 2774-26-120     26    120.0       2200.    
  7985 2762-26-26      26    26.00       2162.    
  7986 2733-26-1       26   1.0000       2092.    
  7987 2742-26-26      26    26.00       2135.    
  7988 2670-26-18      26    18.00       2129.    
  7989 2660-26-120     26    120.0       2188.    
  7990 2931-26-22      26    22.00       2410.    
  7991 2595-26-12      26    12.00       1779.    
     MULTIPLE LAYERS AND PROPORTIONS :    2, 0.19       3, 0.81
  7992 2596-26-1       26   1.0000       1776.    
     MULTIPLE LAYERS AND PROPORTIONS :    2, 0.12       3, 0.88
  7993 2589-26-11      26    11.00       1776.    
  7994 2588-26-1       26   1.0000       1774.    
  7995 2564-26-12      26    12.00       1779.    
  7996 2529-26-12      26    12.00       1789.    
     MULTIPLE LAYERS AND PROPORTIONS :    2, 0.05       3, 0.95
  7997 2449-26-11      26    11.00       1828.    
  7998 2492-26-13      26    13.00       1813.    
     MULTIPLE LAYERS AND PROPORTIONS :    2, 0.26       3, 0.74
  7999 2452-26-12      26    12.00       1795.    
     MULTIPLE LAYERS AND PROPORTIONS :    2, 0.09       3, 0.91
  8000 2303-26-1       26   1.0000       1795.    
     MULTIPLE LAYERS AND PROPORTIONS :    2, 0.07       3, 0.93
  8001 2296-26-12      26    12.00       1805.    
     MULTIPLE LAYERS AND PROPORTIONS :    2, 0.10       3, 0.90
  8002 2301-26-14      26    14.00       1821.    
     MULTIPLE LAYERS AND PROPORTIONS :    2, 0.27       3, 0.73
  8003 2300-26-11      26    11.00       1839.    
     MULTIPLE LAYERS AND PROPORTIONS :    2, 0.44       3, 0.56
  8004 2220-26-11      26    11.00       1844.    
     MULTIPLE LAYERS AND PROPORTIONS :    2, 0.13       3, 0.87
  8005 2089-26-1       26   1.0000       1825.    
     MULTIPLE LAYERS AND PROPORTIONS :    2, 0.14       3, 0.86
  8006 2088-26-12      26    12.00       1831.    
     MULTIPLE LAYERS AND PROPORTIONS :    2, 0.17       3, 0.83
  8007 2448-26-11      26    11.00       1837.    
  8008 2099-26-1       26   1.0000       1851.    
     MULTIPLE LAYERS AND PROPORTIONS :    2, 0.43       3, 0.57
  8009 1922-26-1       26   1.0000       1870.    
     MULTIPLE LAYERS AND PROPORTIONS :    2, 0.39       3, 0.61
  8010 1983-26-11      26    11.00       1883.    
  8011 1930-26-14      26    14.00       1888.    
  8012 2649-26-27      26    27.00       2098.    
     MULTIPLE LAYERS AND PROPORTIONS :    1, 0.55       2, 0.45
  8013 2505-26-32      26    32.00       2152.    
  8014 2464-26-29      26    29.00       2151.    
  8015 2388-26-32      26    32.00       2173.    
  8016 2412-26-20      26    20.00       2232.    
     MULTIPLE LAYERS AND PROPORTIONS :    1, 0.97       2, 0.03
  8017 2289-26-29      26    29.00       2181.    
  8018 2236-26-19      26    19.00       2195.    
  8019 2183-26-29      26    29.00       2163.    
  8020 2215-26-104     26    104.0       2435.    
  8021 2162-26-102     26    102.0       2323.    
  8022 2130-26-69      26    69.00       2258.    
  8023 1990-26-67      26    67.00       2274.    
  8024 2103-26-67      26    67.00       2293.    
     MULTIPLE LAYERS AND PROPORTIONS :    1, 0.64       2, 0.36
  8025 2055-26-102     26    102.0       2292.    
  8026 1997-26-183     26    183.0       2331.    
  8027 2339-26-104     26    104.0       2473.    
  8028 2100-26-117     26    117.0       2518.    
  8029 2010-26-75      26    75.00       2379.    
  8030 1428-26-1       26   1.0000       1959.    
  8031 1383-26-8       26    8.000       2004.    
  8032 1819-26-1       26   1.0000       1912.    
     MULTIPLE LAYERS AND PROPORTIONS :    2, 0.69       3, 0.31
  8033 1748-26-11      26    11.00       1915.    
     MULTIPLE LAYERS AND PROPORTIONS :    2, 0.51       3, 0.49
  8034 1702-26-11      26    11.00       1892.    
     MULTIPLE LAYERS AND PROPORTIONS :    2, 0.37       3, 0.63
  8035 1710-26-1       26   1.0000       1884.    
     MULTIPLE LAYERS AND PROPORTIONS :    2, 0.18       3, 0.82
  8036 1663-26-1       26   1.0000       1894.    
     MULTIPLE LAYERS AND PROPORTIONS :    2, 0.25       3, 0.75
  8037 1612-26-11      26    11.00       1921.    
  8038 1407-26-11      26    11.00       1992.    
     MULTIPLE LAYERS AND PROPORTIONS :    2, 0.83       3, 0.17
  8039 1364-26-11      26    11.00       1996.    
  8040 1266-26-8       26    8.000       2015.    
     MULTIPLE LAYERS AND PROPORTIONS :    2, 0.57       3, 0.43
  8041 1336-26-11      26    11.00       2008.    
     MULTIPLE LAYERS AND PROPORTIONS :    2, 0.82       3, 0.18
  8042 1337-26-11      26    11.00       2002.    
     MULTIPLE LAYERS AND PROPORTIONS :    2, 0.78       3, 0.22
  8043 1264-26-1       26   1.0000       2006.    
     MULTIPLE LAYERS AND PROPORTIONS :    2, 0.41       3, 0.59
  8044 1849-26-40      26    40.00       2254.    
     MULTIPLE LAYERS AND PROPORTIONS :    1, 0.73       2, 0.27
  8045 1832-26-40      26    40.00       2225.    
  8046 1690-26-33      26    33.00       2246.    
  8047 1691-26-1       26   1.0000       2240.    
  8048 1417-26-60      26    60.00       2352.    
  8049 1386-26-34      26    34.00       2348.    
     MULTIPLE LAYERS AND PROPORTIONS :    1, 0.37       2, 0.49       3, 0.14
  8050 1329-26-35      26    35.00       2350.    
  8051 1278-26-33      26    33.00       2365.    
  8052 1879-26-69      26    69.00       2338.    
     MULTIPLE LAYERS AND PROPORTIONS :    1, 0.20       2, 0.80
  8053 1811-26-68      26    68.00       2332.    
     MULTIPLE LAYERS AND PROPORTIONS :    1, 0.33       2, 0.67
  8054 1837-26-60      26    60.00       2337.    
  8055 1907-26-68      26    68.00       2328.    
  8056 1888-26-68      26    68.00       2311.    
  8057 1779-26-67      26    67.00       2313.    
  8058 1619-26-67      26    67.00       2340.    
     MULTIPLE LAYERS AND PROPORTIONS :    1, 0.59       2, 0.41
  8059 1723-26-60      26    60.00       2306.    
  8060 1694-26-68      26    68.00       2322.    
     MULTIPLE LAYERS AND PROPORTIONS :    1, 0.79       2, 0.21
  8061 1658-26-67      26    67.00       2325.    
     MULTIPLE LAYERS AND PROPORTIONS :    1, 0.83       2, 0.17
  8062 1655-26-69      26    69.00       2339.    
     MULTIPLE LAYERS AND PROPORTIONS :    1, 0.98       2, 0.02
  8063 1614-26-69      26    69.00       2341.    
  8064 1596-26-69      26    69.00       2343.    
  8065 1630-26-69      26    69.00       2351.    
  8066 1552-26-74      26    74.00       2343.    
  8067 1467-26-76      26    76.00       2341.    
  8068 1470-26-74      26    74.00       2328.    
  8069 1455-26-81      26    81.00       2338.    
  8070 1443-26-81      26    81.00       2342.    
  8071 1465-26-74      26    74.00       2337.    
  8072 1440-26-74      26    74.00       2343.    
     MULTIPLE LAYERS AND PROPORTIONS :    1, 0.14       2, 0.86
  8073 1474-26-75      26    75.00       2350.    
  8074 1453-26-71      26    71.00       2351.    
  8075 1488-26-70      26    70.00       2350.    
  8076 1502-26-71      26    71.00       2352.    
     MULTIPLE LAYERS AND PROPORTIONS :    1, 0.40       2, 0.60
  8077 1477-26-60      26    60.00       2354.    
  8078 1458-26-153     26    153.0       2351.    
  8079 1429-26-71      26    71.00       2371.    
     MULTIPLE LAYERS AND PROPORTIONS :    1, 0.19       2, 0.81
  8080 1397-26-71      26    71.00       2361.    
     MULTIPLE LAYERS AND PROPORTIONS :    1, 0.60       2, 0.40
  8081 1416-26-76      26    76.00       2364.    
     MULTIPLE LAYERS AND PROPORTIONS :    1, 0.72       2, 0.28
  8082 1312-26-88      26    88.00       2410.    
  8083 1359-26-82      26    82.00       2387.    
     MULTIPLE LAYERS AND PROPORTIONS :    1, 0.54       2, 0.46
  8084 1333-26-82      26    82.00       2391.    
     MULTIPLE LAYERS AND PROPORTIONS :    1, 0.51       2, 0.49
  8085 1295-26-84      26    84.00       2407.    
  8086 1892-26-193     26    193.0       2511.    
     MULTIPLE LAYERS AND PROPORTIONS :    1, 0.30       2, 0.70
  8087 1940-26-109     26    109.0       2485.    
     MULTIPLE LAYERS AND PROPORTIONS :    1, 0.24       2, 0.76
  8088 1659-26-71      26    71.00       2364.    
     MULTIPLE LAYERS AND PROPORTIONS :    1, 0.55       2, 0.45
  8089 1671-26-60      26    60.00       2365.    
     MULTIPLE LAYERS AND PROPORTIONS :    1, 0.72       2, 0.28
  8090 1627-26-70      26    70.00       2374.    
  8091 1677-26-83      26    83.00       2490.    
  8092 1602-26-83      26    83.00       2397.    
  8093 1604-26-83      26    83.00       2484.    
  8094 1669-26-109     26    109.0       2529.    
  8095 1622-26-109     26    109.0       2528.    
  8096 1553-26-88      26    88.00       2529.    
  8097 1563-26-88      26    88.00       2526.    
  8098 1586-26-84      26    84.00       2483.    
  8099 1507-26-75      26    75.00       2376.    
  8100 1495-26-60      26    60.00       2377.    
     MULTIPLE LAYERS AND PROPORTIONS :    1, 0.18       2, 0.82
  8101 1484-26-75      26    75.00       2370.    
  8102 1489-26-88      26    88.00       2488.    
  8103 1464-26-88      26    88.00       2529.    
  8104 1414-26-95      26    95.00       2547.    
  8105 1395-26-88      26    88.00       2457.    
  8106 1377-26-83      26    83.00       2461.    
  8107 1375-26-88      26    88.00       2509.    
  8108 1396-26-70      26    70.00       2427.    
  8109 1415-26-84      26    84.00       2403.    
  8110 1300-26-213     26    213.0       2560.    
  8111 1276-26-95      26    95.00       2557.    
  8112 1354-26-95      26    95.00       2713.    
  8113 1358-26-95      26    95.00       2714.    
  8114 846-26-13       26    13.00       2358.    
  8115 833-26-13       26    13.00       2354.    
     MULTIPLE LAYERS AND PROPORTIONS :    2, 0.17       3, 0.83
  8116 827-26-13       26    13.00       2353.    
     MULTIPLE LAYERS AND PROPORTIONS :    2, 0.60       3, 0.40
  8117 845-26-13       26    13.00       2306.    
  8118 1105-26-118     26    118.0       2038.    
  8119 1120-26-13      26    13.00       2034.    
  8120 1088-26-91      26    91.00       2090.    
  8121 809-26-13       26    13.00       2198.    
  8122 1235-26-36      26    36.00       2364.    
     MULTIPLE LAYERS AND PROPORTIONS :    2, 0.35       3, 0.65
  8123 1239-26-33      26    33.00       2364.    
     MULTIPLE LAYERS AND PROPORTIONS :    1, 0.16       2, 0.58       3, 0.26
  8124 1227-26-33      26    33.00       2367.    
     MULTIPLE LAYERS AND PROPORTIONS :    2, 0.25       3, 0.75
  8125 1219-26-36      26    36.00       2358.    
     MULTIPLE LAYERS AND PROPORTIONS :    1, 0.29       2, 0.09       3, 0.62
  8126 1168-26-35      26    35.00       2377.    
  8127 1140-26-35      26    35.00       2383.    
     MULTIPLE LAYERS AND PROPORTIONS :    1, 0.46       2, 0.52       3, 0.02
  8128 1160-26-36      26    36.00       2371.    
     MULTIPLE LAYERS AND PROPORTIONS :    1, 0.79       2, 0.21
  8129 1121-26-36      26    36.00       2378.    
     MULTIPLE LAYERS AND PROPORTIONS :    1, 0.34       2, 0.21       3, 0.45
  8130 1080-26-36      26    36.00       2443.    
  8131 1048-26-36      26    36.00       2445.    
     MULTIPLE LAYERS AND PROPORTIONS :    1, 0.20       2, 0.12       3, 0.68
  8132 1075-26-36      26    36.00       2428.    
     MULTIPLE LAYERS AND PROPORTIONS :    1, 0.35       2, 0.04       3, 0.61
  8133 1016-26-36      26    36.00       2387.    
  8134 1011-26-36      26    36.00       2378.    
     MULTIPLE LAYERS AND PROPORTIONS :    1, 0.14       2, 0.14       3, 0.72
  8135 1083-26-35      26    35.00       2391.    
  8136 997-26-244      26    244.0       2404.    
  8137 910-26-166      26    166.0       2463.    
     MULTIPLE LAYERS AND PROPORTIONS :    2, 0.05       3, 0.95
  8138 1212-26-64      26    64.00       2374.    
  8139 1131-26-349     26    349.0       2441.    
  8140 1188-26-60      26    60.00       2481.    
  8141 1076-26-341     26    341.0       2520.    
     MULTIPLE LAYERS AND PROPORTIONS :    1, 0.30       2, 0.70
  8142 1000-26-18      26    18.00       2522.    
  8143 1095-26-18      26    18.00       2462.    
  8144 1035-26-61      26    61.00       2488.    
  8145 1037-26-60      26    60.00       2477.    
  8146 878-26-60       26    60.00       2496.    
     MULTIPLE LAYERS AND PROPORTIONS :    1, 0.34       2, 0.66
  8147 1250-26-84      26    84.00       2437.    
     MULTIPLE LAYERS AND PROPORTIONS :    1, 0.42       2, 0.58
  8148 1251-26-84      26    84.00       2433.    
     MULTIPLE LAYERS AND PROPORTIONS :    1, 0.24       2, 0.76
  8149 1195-26-81      26    81.00       2500.    
     MULTIPLE LAYERS AND PROPORTIONS :    1, 0.47       2, 0.53
  8150 1110-26-62      26    62.00       2530.    
  8151 1044-26-82      26    82.00       2565.    
  8152 1017-26-62      26    62.00       2545.    
  8153 973-26-95       26    95.00       2601.    
  8154 870-26-95       26    95.00       2615.    
  8155 3417-26-95      26    95.00       2627.    
     MULTIPLE LAYERS AND PROPORTIONS :    2, 0.14       3, 0.86
  8156 1246-26-305     26    305.0       2722.    
  8157 1593-26-18      26    18.00       2766.    
  8158 757-26-141      26    141.0       2333.    
     MULTIPLE LAYERS AND PROPORTIONS :    2, 0.16       3, 0.84
  8159 758-26-1        26   1.0000       2395.    
     MULTIPLE LAYERS AND PROPORTIONS :    2, 0.23       3, 0.77
  8160 722-26-64       26    64.00       2443.    
  8161 737-26-1        26   1.0000       2415.    
  8162 656-26-1        26   1.0000       2498.    
  8163 602-26-1        26   1.0000       2502.    
  8164 598-26-1        26   1.0000       2492.    
  8165 720-26-1        26   1.0000       2222.    
  8166 674-26-43       26    43.00       2549.    
     MULTIPLE LAYERS AND PROPORTIONS :    1, 0.84       2, 0.16
  8167 673-26-49       26    49.00       2545.    
     MULTIPLE LAYERS AND PROPORTIONS :    1, 0.32       2, 0.68
  8168 810-26-43       26    43.00       2512.    
  8169 785-26-65       26    65.00       2582.    
  8170 681-26-96       26    96.00       2620.    
  8171 608-26-64       26    64.00       2631.    
     MULTIPLE LAYERS AND PROPORTIONS :    2, 0.74       3, 0.26
  8172 559-26-60       26    60.00       2643.    
  8173 731-26-98       26    98.00       2678.    
  8174 683-26-91       26    91.00       2679.    
  8175 496-26-56       26    56.00       2578.    
  8176 408-26-46       26    46.00       2653.    
  8177 391-26-72       26    72.00       2685.    
     MULTIPLE LAYERS AND PROPORTIONS :    2, 0.22       3, 0.78
  8178 451-26-85       26    85.00       2697.    
  8179 477-26-63       26    63.00       2661.    
  8180 302-26-47       26    47.00       2680.    
  8181 295-26-47       26    47.00       2724.    
  8182 281-26-47       26    47.00       2687.    
  8183 270-26-41       26    41.00       2694.    
  8184 278-26-11       26    11.00       2716.    
     MULTIPLE LAYERS AND PROPORTIONS :    1, 0.77       2, 0.23
  8185 250-26-11       26    11.00       2727.    
     MULTIPLE LAYERS AND PROPORTIONS :    2, 0.02       3, 0.98
  8186 3333-27-99      27    99.00       1707.    
  8187 3176-27-347     27    347.0       1652.    
  8188 3055-27-126     27    126.0       2453.    
  8189 2747-27-253     27    253.0       2052.    
  8190 995-27-236      27    236.0       2110.    
     MULTIPLE LAYERS AND PROPORTIONS :    2, 0.06       3, 0.94
  8191 778-27-348      27    348.0       2610.    
  8192 718-27-151      27    151.0       2631.    
     MULTIPLE LAYERS AND PROPORTIONS :    2, 0.38       3, 0.62
  8193 3239-30-335     30    335.0       2915.    
  8194 3181-30-185     30    185.0       2850.    
     MULTIPLE LAYERS AND PROPORTIONS :    2, 0.28       3, 0.72
  8195 3211-30-274     30    274.0       2885.    
  8196 3189-30-181     30    181.0       2873.    
     MULTIPLE LAYERS AND PROPORTIONS :    2, 0.35       3, 0.65
  8197 3198-30-274     30    274.0       2910.    
  8198 3192-30-274     30    274.0       2905.    
  8199 3124-30-213     30    213.0       2790.    
  8200 2832-30-108     30    108.0       2015.    
     MULTIPLE LAYERS AND PROPORTIONS :    1, 0.79       2, 0.21
  8201 2673-30-244     30    244.0       2073.    
     MULTIPLE LAYERS AND PROPORTIONS :    1, 0.49       2, 0.51
  8202 2876-30-99      30    99.00       2185.    
     MULTIPLE LAYERS AND PROPORTIONS :    2, 0.26       3, 0.74
  8203 2774-30-91      30    91.00       2193.    
  8204 2733-30-27      30    27.00       2093.    
  8205 2603-30-29      30    29.00       2118.    
     MULTIPLE LAYERS AND PROPORTIONS :    1, 0.75       2, 0.25
  8206 2652-30-27      30    27.00       2115.    
     MULTIPLE LAYERS AND PROPORTIONS :    1, 0.25       2, 0.75
  8207 2576-30-30      30    30.00       2130.    
  8208 2542-30-30      30    30.00       2154.    
     MULTIPLE LAYERS AND PROPORTIONS :    1, 0.57       2, 0.43
  8209 2505-30-29      30    29.00       2150.    
  8210 2355-30-1       30   1.0000       2157.    
     MULTIPLE LAYERS AND PROPORTIONS :    2, 0.78       3, 0.22
  8211 2464-30-29      30    29.00       2154.    
  8212 2357-30-30      30    30.00       2173.    
  8213 2373-30-30      30    30.00       2161.    
     MULTIPLE LAYERS AND PROPORTIONS :    1, 0.25       2, 0.60       3, 0.15
  8214 2446-30-30      30    30.00       2180.    
     MULTIPLE LAYERS AND PROPORTIONS :    1, 0.60       2, 0.40
  8215 2445-30-121     30    121.0       2188.    
  8216 2237-30-34      30    34.00       2202.    
  8217 2137-30-35      30    35.00       2201.    
     MULTIPLE LAYERS AND PROPORTIONS :    2, 0.99       3, 0.01
  8218 2109-30-30      30    30.00       2196.    
  8219 2038-30-1       30   1.0000       2202.    
  8220 2059-30-35      30    35.00       2212.    
     MULTIPLE LAYERS AND PROPORTIONS :    1, 0.99       2, 0.01
  8221 2227-30-273     30    273.0       2279.    
     MULTIPLE LAYERS AND PROPORTIONS :    1, 0.53       2, 0.28       3, 0.19
  8222 2056-30-18      30    18.00       2281.    
  8223 2019-30-111     30    111.0       2276.    
     MULTIPLE LAYERS AND PROPORTIONS :    1, 0.69       2, 0.31
  8224 1998-30-244     30    244.0       2298.    
  8225 2086-30-14      30    14.00       2348.    
  8226 2069-30-244     30    244.0       2359.    
     MULTIPLE LAYERS AND PROPORTIONS :    1, 0.57       2, 0.43
  8227 2081-30-105     30    105.0       2369.    
  8228 2246-30-335     30    335.0       2440.    
  8229 2001-30-305     30    305.0       2546.    
  8230 1617-30-121     30    121.0       2310.    
  8231 1391-30-43      30    43.00       2344.    
     MULTIPLE LAYERS AND PROPORTIONS :    1, 0.42       2, 0.45       3, 0.13
  8232 1427-30-11      30    11.00       2340.    
  8233 1400-30-42      30    42.00       2345.    
  8234 1619-30-57      30    57.00       2328.    
     MULTIPLE LAYERS AND PROPORTIONS :    1, 0.59       2, 0.41
  8235 1693-30-51      30    51.00       2339.    
  8236 1500-30-56      30    56.00       2304.    
     MULTIPLE LAYERS AND PROPORTIONS :    1, 0.32       2, 0.68
  8237 1312-30-349     30    349.0       2406.    
  8238 1874-30-1       30   1.0000       2575.    
  8239 1857-30-157     30    157.0       2523.    
  8240 1843-30-213     30    213.0       2506.    
     MULTIPLE LAYERS AND PROPORTIONS :    1, 0.35       2, 0.65
  8241 1846-30-43      30    43.00       2486.    
     MULTIPLE LAYERS AND PROPORTIONS :    1, 0.30       2, 0.70
  8242 1676-30-79      30    79.00       2516.    
  8243 1574-30-246     30    246.0       2530.    
  8244 1368-30-60      30    60.00       2431.    
     MULTIPLE LAYERS AND PROPORTIONS :    1, 0.15       2, 0.85
  8245 1366-30-43      30    43.00       2461.    
  8246 1348-30-43      30    43.00       2520.    
  8247 1320-30-335     30    335.0       2645.    
  8248 1276-30-121     30    121.0       2559.    
  8249 1751-30-305     30    305.0       2638.    
  8250 1752-30-305     30    305.0       2582.    
  8251 1749-30-305     30    305.0       2565.    
  8252 1754-30-130     30    130.0       2612.    
  8253 812-30-6        30    6.000       2350.    
     MULTIPLE LAYERS AND PROPORTIONS :    2, 0.08       3, 0.92
  8254 1235-30-43      30    43.00       2363.    
     MULTIPLE LAYERS AND PROPORTIONS :    2, 0.35       3, 0.65
  8255 1197-30-43      30    43.00       2463.    
  8256 1187-30-182     30    182.0       2476.    
     MULTIPLE LAYERS AND PROPORTIONS :    1, 0.30       2, 0.66       3, 0.04
  8257 1194-30-1       30   1.0000       2495.    
  8258 529-30-351      30    351.0       2510.    
     MULTIPLE LAYERS AND PROPORTIONS :    2, 0.04       3, 0.96
  8259 686-30-127      30    127.0       2532.    
     MULTIPLE LAYERS AND PROPORTIONS :    1, 0.21       2, 0.32       3, 0.47
  8260 488-30-44       30    44.00       2517.    
  8261 485-30-351      30    351.0       2554.    
     MULTIPLE LAYERS AND PROPORTIONS :    2, 0.05       3, 0.95
  8262 476-30-60       30    60.00       2570.    
  8263 408-30-349      30    349.0       2630.    
  8264 402-30-213      30    213.0       2615.    
  8265 366-30-42       30    42.00       2663.    
  8266 301-30-342      30    342.0       2660.    
  8267 270-30-342      30    342.0       2667.    
  8268 3376-31-2       31    2.000       1547.    
  8269 3351-31-101     31    101.0       1629.    
  8270 3272-31-104     31    104.0       2957.    
  8271 3145-31-193     31    193.0       1750.    
     MULTIPLE LAYERS AND PROPORTIONS :    1, 0.13       2, 0.87
  8272 3161-31-244     31    244.0       1725.    
  8273 3038-31-1       31   1.0000       1696.    
     MULTIPLE LAYERS AND PROPORTIONS :    1, 0.19       2, 0.77       3, 0.04
  8274 3243-31-1       31   1.0000       2895.    
  8275 3256-31-104     31    104.0       2929.    
     MULTIPLE LAYERS AND PROPORTIONS :    2, 0.47       3, 0.53
  8276 3208-31-273     31    273.0       2890.    
     MULTIPLE LAYERS AND PROPORTIONS :    2, 0.57       3, 0.43
  8277 3153-31-348     31    348.0       2821.    
     MULTIPLE LAYERS AND PROPORTIONS :    2, 0.40       3, 0.60
  8278 3164-31-283     31    283.0       2845.    
     MULTIPLE LAYERS AND PROPORTIONS :    2, 0.39       3, 0.61
  8279 3093-31-104     31    104.0       2691.    
  8280 2787-31-57      31    57.00       1715.    
  8281 2734-31-1       31   1.0000       1719.    
     MULTIPLE LAYERS AND PROPORTIONS :    2, 0.06       3, 0.94
  8282 2823-31-196     31    196.0       1708.    
  8283 2927-31-29      31    29.00       1953.    
     MULTIPLE LAYERS AND PROPORTIONS :    1, 0.20       2, 0.63       3, 0.17
  8284 2743-31-220     31    220.0       2083.    
  8285 2756-31-252     31    252.0       2034.    
     MULTIPLE LAYERS AND PROPORTIONS :    1, 0.13       2, 0.87
  8286 2699-31-1       31   1.0000       2064.    
  8287 2687-31-266     31    266.0       2081.    
     MULTIPLE LAYERS AND PROPORTIONS :    1, 0.55       2, 0.45
  8288 2615-31-1       31   1.0000       1813.    
  8289 2650-31-60      31    60.00       2101.    
  8290 2558-31-121     31    121.0       2120.    
     MULTIPLE LAYERS AND PROPORTIONS :    1, 0.23       2, 0.77
  8291 2475-31-120     31    120.0       2142.    
     MULTIPLE LAYERS AND PROPORTIONS :    1, 0.31       2, 0.69
  8292 2460-31-120     31    120.0       2159.    
     MULTIPLE LAYERS AND PROPORTIONS :    1, 0.38       2, 0.62
  8293 2427-31-120     31    120.0       2172.    
     MULTIPLE LAYERS AND PROPORTIONS :    1, 0.33       2, 0.67
  8294 2326-31-121     31    121.0       2234.    
     MULTIPLE LAYERS AND PROPORTIONS :    1, 0.30       2, 0.58       3, 0.12
  8295 2212-31-121     31    121.0       2209.    
     MULTIPLE LAYERS AND PROPORTIONS :    1, 0.13       2, 0.87
  8296 1991-31-36      31    36.00       2203.    
     MULTIPLE LAYERS AND PROPORTIONS :    1, 0.40       2, 0.60
  8297 1958-31-36      31    36.00       2205.    
     MULTIPLE LAYERS AND PROPORTIONS :    1, 0.30       2, 0.70
  8298 2057-31-121     31    121.0       2211.    
  8299 1951-31-36      31    36.00       2239.    
     MULTIPLE LAYERS AND PROPORTIONS :    1, 0.81       2, 0.19
  8300 2014-31-121     31    121.0       2308.    
  8301 1974-31-120     31    120.0       2295.    
  8302 2102-31-119     31    119.0       2325.    
     MULTIPLE LAYERS AND PROPORTIONS :    1, 0.19       2, 0.81
  8303 2054-31-91      31    91.00       2321.    
     MULTIPLE LAYERS AND PROPORTIONS :    1, 0.31       2, 0.69
  8304 2339-31-78      31    78.00       2474.    
  8305 2330-31-196     31    196.0       2520.    
  8306 2100-31-78      31    78.00       2521.    
  8307 2043-31-211     31    211.0       2485.    
     MULTIPLE LAYERS AND PROPORTIONS :    1, 0.59       2, 0.41
  8308 1849-31-1       31   1.0000       2249.    
     MULTIPLE LAYERS AND PROPORTIONS :    1, 0.73       2, 0.27
  8309 1471-31-113     31    113.0       2330.    
     MULTIPLE LAYERS AND PROPORTIONS :    1, 0.57       2, 0.43
  8310 1461-31-40      31    40.00       2308.    
     MULTIPLE LAYERS AND PROPORTIONS :    2, 0.50       3, 0.50
  8311 1321-31-40      31    40.00       2335.    
  8312 1306-31-113     31    113.0       2337.    
     MULTIPLE LAYERS AND PROPORTIONS :    1, 0.31       2, 0.69
  8313 1307-31-113     31    113.0       2342.    
  8314 1305-31-121     31    121.0       2345.    
  8315 1886-31-119     31    119.0       2327.    
  8316 1879-31-119     31    119.0       2322.    
     MULTIPLE LAYERS AND PROPORTIONS :    1, 0.20       2, 0.80
  8317 1779-31-119     31    119.0       2295.    
  8318 1724-31-118     31    118.0       2294.    
  8319 1694-31-119     31    119.0       2307.    
     MULTIPLE LAYERS AND PROPORTIONS :    1, 0.79       2, 0.21
  8320 1695-31-120     31    120.0       2314.    
  8321 1596-31-119     31    119.0       2320.    
  8322 1683-31-68      31    68.00       2347.    
     MULTIPLE LAYERS AND PROPORTIONS :    1, 0.71       2, 0.29
  8323 1552-31-117     31    117.0       2327.    
  8324 1533-31-118     31    118.0       2316.    
  8325 1813-31-117     31    117.0       2308.    
  8326 1538-31-117     31    117.0       2310.    
     MULTIPLE LAYERS AND PROPORTIONS :    1, 0.14       2, 0.86
  8327 1470-31-117     31    117.0       2313.    
  8328 1453-31-117     31    117.0       2336.    
  8329 1502-31-120     31    120.0       2339.    
     MULTIPLE LAYERS AND PROPORTIONS :    1, 0.40       2, 0.60
  8330 1416-31-62      31    62.00       2338.    
     MULTIPLE LAYERS AND PROPORTIONS :    1, 0.72       2, 0.28
  8331 1784-31-148     31    148.0       2366.    
     MULTIPLE LAYERS AND PROPORTIONS :    1, 0.20       2, 0.80
  8332 1659-31-114     31    114.0       2355.    
     MULTIPLE LAYERS AND PROPORTIONS :    1, 0.55       2, 0.45
  8333 1671-31-114     31    114.0       2350.    
     MULTIPLE LAYERS AND PROPORTIONS :    1, 0.72       2, 0.28
  8334 1602-31-114     31    114.0       2371.    
  8335 1507-31-114     31    114.0       2358.    
  8336 1514-31-114     31    114.0       2349.    
     MULTIPLE LAYERS AND PROPORTIONS :    1, 0.14       2, 0.86
  8337 1495-31-69      31    69.00       2358.    
     MULTIPLE LAYERS AND PROPORTIONS :    1, 0.18       2, 0.82
  8338 1484-31-114     31    114.0       2348.    
  8339 1483-31-114     31    114.0       2436.    
  8340 1239-31-113     31    113.0       2352.    
     MULTIPLE LAYERS AND PROPORTIONS :    1, 0.16       2, 0.58       3, 0.26
  8341 1234-31-113     31    113.0       2349.    
     MULTIPLE LAYERS AND PROPORTIONS :    1, 0.14       2, 0.34       3, 0.52
  8342 1099-31-117     31    117.0       2361.    
     MULTIPLE LAYERS AND PROPORTIONS :    1, 0.26       2, 0.24       3, 0.50
  8343 853-31-118      31    118.0       2482.    
  8344 720-31-1        31   1.0000       2221.    
  8345 729-31-118      31    118.0       2508.    
     MULTIPLE LAYERS AND PROPORTIONS :    1, 0.47       2, 0.53
  8346 679-31-118      31    118.0       2516.    
     MULTIPLE LAYERS AND PROPORTIONS :    1, 0.95       2, 0.05
  8347 810-31-118      31    118.0       2479.    
  8348 299-31-59       31    59.00       2671.    
     MULTIPLE LAYERS AND PROPORTIONS :    2, 0.14       3, 0.86
  8349 3281-32-351     32    351.0       1586.    
  8350 3347-32-97      32    97.00       2965.    
  8351 3051-32-152     32    152.0       1691.    
     MULTIPLE LAYERS AND PROPORTIONS :    2, 0.43       3, 0.57
  8352 3004-32-94      32    94.00       2011.    
     MULTIPLE LAYERS AND PROPORTIONS :    2, 0.30       3, 0.70
  8353 2997-32-94      32    94.00       2234.    
  8354 3016-32-94      32    94.00       2280.    
  8355 3055-32-94      32    94.00       2452.    
  8356 2880-32-95      32    95.00       2083.    
  8357 2883-32-196     32    196.0       2011.    
  8358 2977-32-96      32    96.00       2361.    
     MULTIPLE LAYERS AND PROPORTIONS :    2, 0.89       3, 0.11
  8359 2914-32-96      32    96.00       2130.    
  8360 2930-32-96      32    96.00       2337.    
  8361 2869-32-96      32    96.00       2320.    
  8362 2898-32-96      32    96.00       2125.    
  8363 2841-32-96      32    96.00       2182.    
  8364 2742-32-95      32    95.00       2130.    
  8365 2956-32-95      32    95.00       2527.    
  8366 2441-32-216     32    216.0       1804.    
  8367 2477-32-137     32    137.0       1798.    
  8368 2334-32-335     32    335.0       2382.    
  8369 2314-32-342     32    342.0       2365.    
  8370 2331-32-29      32    29.00       2480.    
  8371 2128-32-154     32    154.0       2478.    
  8372 2092-32-154     32    154.0       2468.    
  8373 2085-32-154     32    154.0       2448.    
  8374 1278-32-50      32    50.00       2361.    
  8375 1791-32-119     32    119.0       2331.    
     MULTIPLE LAYERS AND PROPORTIONS :    1, 0.28       2, 0.72
  8376 1131-32-62      32    62.00       2436.    
  8377 1035-32-71      32    71.00       2477.    
  8378 2799-35-122     35    122.0       1998.    
     MULTIPLE LAYERS AND PROPORTIONS :    2, 0.81       3, 0.19
  8379 861-35-329      35    329.0       2230.    
  8380 3038-36-52      36    52.00       1680.    
     MULTIPLE LAYERS AND PROPORTIONS :    1, 0.19       2, 0.77       3, 0.04
  8381 2937-36-86      36    86.00       1764.    
     MULTIPLE LAYERS AND PROPORTIONS :    2, 0.86       3, 0.14
  8382 1428-36-91      36    91.00       1955.    
  8383 1106-36-164     36    164.0       2031.    
  8384 727-36-333      36    333.0       2585.    
     MULTIPLE LAYERS AND PROPORTIONS :    2, 0.85       3, 0.15
  8385 492-36-108      36    108.0       2478.    
  8386 380-36-78       36    78.00       2594.    
     MULTIPLE LAYERS AND PROPORTIONS :    2, 0.12       3, 0.88
  8387 3318-37-364     37    364.0       1613.    
     MULTIPLE LAYERS AND PROPORTIONS :    2, 0.14       3, 0.86
  8388 2476-37-182     37    182.0       2165.    
  8389 2437-37-1       37   1.0000       2175.    
  8390 1436-37-201     37    201.0       2321.    
  8391 974-37-342      37    342.0       2328.    
  8392 981-37-84       37    84.00       2562.    
  8393 814-37-58       37    58.00       2570.    
  8394 697-37-41       37    41.00       2615.    
     MULTIPLE LAYERS AND PROPORTIONS :    2, 0.47       3, 0.53
  8395 659-37-16       37    16.00       2662.    
     MULTIPLE LAYERS AND PROPORTIONS :    1, 0.38       2, 0.53       3, 0.09

                                                     HEAD CHANGE
                                                      REFERENCE
        OBSERVATION                   ROW     COL    OBSERVATION
  OBS#     NAME       LAY  ROW  COL  OFFSET  OFFSET   (IF > 0)
     1  3522-15-337     3    4   65  -0.350   0.330        0
     2  3489-20-74      3    6   64  -0.200  -0.130        0
     3  3485-19-34      3    6   67   0.290   0.050        0
     4  3465-20-300     3    8   66   0.210  -0.090        0
     5  3415-15-154     3   12   67  -0.010   0.340        0
     6  3314-43-7       3   19   66  -0.310   0.240        0
     7  3241-5-82       3   23   68  -0.290  -0.200        0
     8  3384-7-41       2    4   12  -0.470  -0.420        0
     9  3384-12-10      2    4   12  -0.470  -0.420        0
    10  3384-16-340     2    4   12  -0.470  -0.420        0
    11  3384-21-335     2    4   12  -0.470  -0.420        0
    12  3384-27-13      2    4   12  -0.470  -0.420        0
    13  3384-32-5       2    4   12  -0.470  -0.420        0
    14  3384-36-349     2    4   12  -0.470  -0.420        0
    15  3400-55-321     3    1   19   0.030  -0.350        0
    16  3400-60-312     3    1   19   0.030  -0.350        0
    17  3400-65-363     3    1   19   0.030  -0.350        0
    18  3400-71-349     3    1   19   0.030  -0.350        0
    19  3401-55-321     2    1   19   0.030  -0.350        0
    20  3401-60-312     2    1   19   0.030  -0.350        0
    21  3401-65-363     2    1   19   0.030  -0.350        0
    22  3401-71-349     2    1   19   0.030  -0.350        0
    23  3397-11-313     2    2   17  -0.330   0.290        0
    24  3361-21-339     2    5   12   0.250  -0.430        0
    25  3361-32-5       2    5   12   0.250  -0.430        0
    26  3346-16-340     2    6   12  -0.010  -0.460        0
    27  3346-21-339     2    6   12  -0.010  -0.460        0
    28  3346-32-5       2    6   12  -0.010  -0.460        0
    29  3346-37-349     2    6   12  -0.010  -0.460        0
    30  3346-49-54      2    6   12  -0.010  -0.460        0
    31  3346-60-319     2    6   12  -0.010  -0.460        0
    32  3346-65-298     2    6   12  -0.010  -0.460        0
    33  3346-71-13      2    6   12  -0.010  -0.460        0
    34  3376-6-41       2    7   14  -0.080  -0.350        0
    35  3376-12-46      2    7   14  -0.080  -0.350        0
    36  3376-16-362     2    7   14  -0.080  -0.350        0
    37  3376-21-336     2    7   14  -0.080  -0.350        0
    38  3376-27-12      2    7   14  -0.080  -0.350        0
    39  3376-38-1       2    7   14  -0.080  -0.350        0
    40  3327-56-26      2    8   14  -0.210   0.480        0
    41  3327-66-18      2    8   14  -0.210   0.480        0
    42  3306-1-32       2    9   14   0.280  -0.140        0
    43  3299-38-41      2   10   14  -0.490   0.000        0
    44  3311-15-337     2    9   65  -0.220   0.430        0
    45  3313-32-7       2    9   16  -0.330  -0.390        0
    46  3313-38-1       2    9   16  -0.330  -0.390        0
    47  3313-56-26      2    9   16  -0.330  -0.390        0
    48  3313-66-18      2    9   16  -0.330  -0.390        0
    49  3303-56-26      2    9   15   0.320  -0.070        0
    50  3303-66-18      2    9   15   0.320  -0.070        0
    51  3302-12-32      2    9   16   0.400  -0.360        0
    52  3302-56-26      2    9   16   0.400  -0.360        0
    53  3302-66-18      2    9   16   0.400  -0.360        0
    54  3320-2-305      1    8   13   0.360   0.310        0
    55  3324-26-339     2    8   13   0.090  -0.470        0
    56  3312-16-335     2    9   13  -0.340  -0.460        0
    57  3312-21-335     2    9   13  -0.340  -0.460        0
    58  3312-32-1       2    9   13  -0.340  -0.460        0
    59  3312-36-51      2    9   13  -0.340  -0.460        0
    60  3294-1-60       2   10   13   0.230   0.470        0
    61  3291-16-362     2   10   13   0.230   0.500        0
    62  3288-12-32      2   11   12  -0.080   0.390        0
    63  3288-21-335     2   11   12  -0.080   0.390        0
    64  3288-32-7       2   11   12  -0.080   0.390        0
    65  3282-21-336     2   11   14   0.250  -0.480        0
    66  3282-32-7       2   11   14   0.250  -0.480        0
    67  3282-38-10      2   11   14   0.250  -0.480        0
    68  3285-5-179      2   11   16   0.160  -0.430        0
    69  3285-11-25      2   11   16   0.160  -0.430        0
    70  3285-16-341     2   11   16   0.160  -0.430        0
    71  3285-21-336     2   11   16   0.160  -0.430        0
    72  3279-12-39      2   11   16   0.430  -0.460        0
    73  3279-16-362     2   11   16   0.430  -0.460        0
    74  3279-21-341     2   11   16   0.430  -0.460        0
    75  3279-27-28      2   11   16   0.430  -0.460        0
    76  3281-21-336     2   11   16   0.350  -0.460        0
    77  3281-37-350     2   11   16   0.350  -0.460        0
    78  3268-21-274     2   13   15   0.150   0.500        0
    79  3268-38-6       2   13   15   0.150   0.500        0
    80  3259-16-348    -3   14   15   0.410  -0.150        0
    81  3259-32-7      -2   14   15   0.410  -0.150        0
    82  3259-36-350    -2   14   15   0.410  -0.150        0
    83  3237-1-365      1   15   15   0.330   0.390        0
    84  3237-3-355      1   15   15   0.330   0.390        0
    85  3237-12-59      1   15   15   0.330   0.390        0
    86  3237-12-59      1   15   15   0.330   0.390        0
    87  3234-6-284      2   15   15   0.370   0.360        0
    88  3234-12-32      2   15   15   0.370   0.360        0
    89  3234-16-348     2   15   15   0.370   0.360        0
    90  3231-21-341    -2   15   15   0.290   0.330        0
    91  3231-27-12     -2   15   15   0.290   0.330        0
    92  3231-38-3      -2   15   15   0.290   0.330        0
    93  3382-48-363     2    4   20  -0.370  -0.390        0
    94  3383-48-363     2    4   20  -0.370  -0.390        0
    95  3363-56-23      2    5   20   0.090   0.100        0
    96  3363-66-18      2    5   20   0.090   0.100        0
    97  3364-11-342    -2    5   20  -0.030  -0.450        0
    98  3364-16-362    -2    5   20  -0.030  -0.450        0
    99  3364-21-341    -2    5   20  -0.030  -0.450        0
   100  3364-27-28      2    5   20  -0.030  -0.450        0
   101  3364-32-4       2    5   20  -0.030  -0.450        0
   102  3364-36-349     2    5   20  -0.030  -0.450        0
   103  3364-43-19      2    5   20  -0.030  -0.450        0
   104  3364-49-54      2    5   20  -0.030  -0.450        0
   105  3364-56-25      2    5   20  -0.030  -0.450        0
   106  3364-60-319     2    5   20  -0.030  -0.450        0
   107  3364-65-298    -2    5   20  -0.030  -0.450        0
   108  3364-71-13     -2    5   20  -0.030  -0.450        0
   109  3364-71-365    -2    5   20  -0.030  -0.450        0
   110  3370-56-25      2    5   19  -0.490   0.090        0
   111  3370-61-72      2    5   19  -0.490   0.090        0
   112  3370-66-18      2    5   19  -0.490   0.090        0
   113  3353-21-335     2    6   20  -0.450  -0.460        0
   114  3353-27-12      2    6   20  -0.450  -0.460        0
   115  3353-56-25      2    6   20  -0.450  -0.460        0
   116  3353-66-18      2    6   20  -0.450  -0.460        0
   117  3351-56-25      2    6   20  -0.490  -0.230        0
   118  3351-61-72      2    6   20  -0.490  -0.230        0
   119  3351-66-18      2    6   20  -0.490  -0.230        0
   120  3310-56-23      3    9   23  -0.230  -0.260        0
   121  3307-56-23      2    9   23   0.040   0.160        0
   122  3307-61-73      2    9   23   0.040   0.160        0
   123  3307-66-20      2    9   23   0.040   0.160        0
   124  3292-56-25     -2   10   19   0.370  -0.310        0
   125  3292-61-73     -2   10   19   0.370  -0.310        0
   126  3292-66-19     -2   10   19   0.370  -0.310        0
   127  3278-11-296     2   11   19   0.480  -0.220        0
   128  3278-16-343     2   11   19   0.480  -0.220        0
   129  3278-21-340     2   11   19   0.480  -0.220        0
   130  3278-27-12      2   11   19   0.480  -0.220        0
   131  3278-32-4       2   11   19   0.480  -0.220        0
   132  3278-36-350     2   11   19   0.480  -0.220        0
   133  3278-43-19      2   11   19   0.480  -0.220        0
   134  3278-49-54      2   11   19   0.480  -0.220        0
   135  3278-56-25      2   11   19   0.480  -0.220        0
   136  3278-60-319     2   11   19   0.480  -0.220        0
   137  3278-65-301     2   11   19   0.480  -0.220        0
   138  3278-71-13      2   11   19   0.480  -0.220        0
   139  3278-71-365     2   11   19   0.480  -0.220        0
   140  3290-56-25     -2   10   20   0.480  -0.370        0
   141  3290-61-73     -2   10   20   0.480  -0.370        0
   142  3290-66-19     -2   10   20   0.480  -0.370        0
   143  3250-12-32      1   15   22  -0.300   0.010        0
   144  3250-16-363     1   15   22  -0.300   0.010        0
   145  3250-21-335     1   15   22  -0.300   0.010        0
   146  3250-32-7       1   15   22  -0.300   0.010        0
   147  3250-36-352     1   15   22  -0.300   0.010        0
   148  3308-56-25     -2   15   22  -0.380   0.080        0
   149  3308-61-73     -2   15   22  -0.380   0.080        0
   150  3308-66-20     -2   15   22  -0.380   0.080        0
   151  3249-16-363     1   15   22  -0.420  -0.340        0
   152  3249-21-340     1   15   22  -0.420  -0.340        0
   153  3249-36-352     1   15   22  -0.420  -0.340        0
   154  3249-56-25      1   15   22  -0.420  -0.340        0
   155  3249-61-73      1   15   22  -0.420  -0.340        0
   156  3233-3-355      1   15   22   0.390   0.430        0
   157  3233-6-341      1   15   22   0.390   0.430        0
   158  3233-12-59      1   15   22   0.390   0.430        0
   159  3233-16-311     1   15   22   0.390   0.430        0
   160  3230-16-348    -2   16   23  -0.460  -0.020        0
   161  3230-21-340    -2   16   23  -0.460  -0.020        0
   162  3230-27-1      -2   16   23  -0.460  -0.020        0
   163  3230-32-7      -2   16   23  -0.460  -0.020        0
   164  3230-36-352     2   16   23  -0.460  -0.020        0
   165  3230-56-25      2   16   23  -0.460  -0.020        0
   166  3230-61-72      2   16   23  -0.460  -0.020        0
   167  3229-17-4      -2   15   23   0.430   0.440        0
   168  3247-61-73      2   15   24  -0.180  -0.370        0
   169  3247-66-20      2   15   24  -0.180  -0.370        0
   170  3368-56-25      3    5   30  -0.230   0.240        0
   171  3333-12-10      2    7   30   0.410   0.170        0
   172  3333-16-343     2    7   30   0.410   0.170        0
   173  3333-32-85      3    7   30   0.410   0.170        0
   174  3333-35-53      3    7   30   0.410   0.170        0
   175  3332-49-54      2    7   30   0.410   0.200        0
   176  3332-56-26      2    7   30   0.410   0.200        0
   177  3332-60-319     2    7   30   0.410   0.200        0
   178  3332-65-298     2    7   30   0.410   0.200        0
   179  3332-71-13      2    7   30   0.410   0.200        0
   180  3332-71-365     2    7   30   0.410   0.200        0
   181  3330-56-25      2    8   29  -0.360   0.490        0
   182  3315-48-300     3    9   28  -0.140   0.090        0
   183  3315-55-321     3    9   28  -0.140   0.090        0
   184  3315-60-312     3    9   28  -0.140   0.090        0
   185  3315-65-363     3    9   28  -0.140   0.090        0
   186  3315-71-351     3    9   28  -0.140   0.090        0
   187  3316-48-300     2    9   28  -0.140   0.090        0
   188  3316-55-321     2    9   28  -0.140   0.090        0
   189  3316-60-312     2    9   28  -0.140   0.090        0
   190  3316-65-363     2    9   28  -0.140   0.090        0
   191  3316-71-351     2    9   28  -0.140   0.090        0
   192  3284-56-25      3   11   34   0.320   0.050        0
   193  3275-38-12      3   12   35  -0.290   0.050        0
   194  3287-38-24      2   11   30   0.160  -0.390        0
   195  3265-48-364     2   14   29  -0.470   0.250        0
   196  3265-56-25     -2   14   29  -0.470   0.250        0
   197  3228-56-20     -2   15   28   0.480   0.110        0
   198  3228-61-73     -2   15   28   0.480   0.110        0
   199  3228-66-19     -2   15   28   0.480   0.110        0
   200  3347-20-74      3    6   64  -0.200  -0.130        0
   201  3347-26-157     3    6   64  -0.200  -0.130        0
   202  3347-37-33      3    6   64  -0.200  -0.130        0
   203  3347-43-82      3    6   64  -0.200  -0.130        0
   204  3347-48-336     3    6   64  -0.200  -0.130        0
   205  3347-56-23      3    6   64  -0.200  -0.130        0
   206  3347-61-62      3    6   64  -0.200  -0.130        0
   207  3347-65-299     3    6   64  -0.200  -0.130        0
   208  3347-71-12      3    6   64  -0.200  -0.130        0
   209  3347-71-365     3    6   64  -0.200  -0.130        0
   210  3378-15-337     2    4   65  -0.350   0.330        0
   211  3378-26-127     2    4   65  -0.350   0.330        0
   212  3378-33-312     2    4   65  -0.350   0.330        0
   213  3378-43-82      2    4   65  -0.350   0.330        0
   214  3378-48-337     2    4   65  -0.350   0.330        0
   215  3378-56-23      2    4   65  -0.350   0.330        0
   216  3378-61-62      2    4   65  -0.350   0.330        0
   217  3378-66-18      2    4   65  -0.350   0.330        0
   218  3336-71-63      3    7   72   0.200   0.480        0
   219  3343-19-34      2    6   67   0.290   0.050        0
   220  3343-26-121     2    6   67   0.290   0.050        0
   221  3343-33-311     2    6   67   0.290   0.050        0
   222  3343-43-82      2    6   67   0.290   0.050        0
   223  3343-48-336     2    6   67   0.290   0.050        0
   224  3343-56-25      2    6   67   0.290   0.050        0
   225  3343-61-62      2    6   67   0.290   0.050        0
   226  3343-66-24      2    6   67   0.290   0.050        0
   227  3343-71-63      2    6   67   0.290   0.050        0
   228  3322-20-300     3    8   66   0.210  -0.090        0
   229  3322-26-127     3    8   66   0.210  -0.090        0
   230  3322-48-337     3    8   66   0.210  -0.090        0
   231  3322-56-25      3    8   66   0.210  -0.090        0
   232  3322-61-60      3    8   66   0.210  -0.090        0
   233  3317-43-85      3    9   66  -0.490  -0.410        0
   234  3317-56-25      3    9   66  -0.490  -0.410        0
   235  3317-61-60      3    9   66  -0.490  -0.410        0
   236  3317-66-27      3    9   66  -0.490  -0.410        0
   237  3317-71-64      3    9   66  -0.490  -0.410        0
   238  3300-56-26      3   10   73  -0.420  -0.440        0
   239  3289-56-26      3   11   71  -0.080   0.000        0
   240  3289-61-65      3   11   71  -0.080   0.000        0
   241  3276-56-26      3   12   71  -0.360   0.260        0
   242  3270-56-26      2   12   72   0.140  -0.050        0
   243  3272-15-154     3   12   67  -0.010   0.340        0
   244  3272-26-125     3   12   67  -0.010   0.340        0
   245  3272-37-36      3   12   67  -0.010   0.340        0
   246  3272-43-27      3   12   67  -0.010   0.340        0
   247  3272-48-336     3   12   67  -0.010   0.340        0
   248  3272-56-26      3   12   67  -0.010   0.340        0
   249  3272-61-60      3   12   67  -0.010   0.340        0
   250  3272-71-12      2   12   67  -0.010   0.340        0
   251  3266-56-26      3   13   67   0.370  -0.180        0
   252  3260-33-313     2   14   73   0.130   0.180        0
   253  3260-48-334     2   14   73   0.130   0.180        0
   254  3260-56-26      2   14   73   0.130   0.180        0
   255  3222-38-6       2   16   24  -0.190   0.120        0
   256  3213-12-324     2   16   20   0.420   0.420        0
   257  3213-16-335     2   16   20   0.420   0.420        0
   258  3213-21-335     2   16   20   0.420   0.420        0
   259  3213-32-7       2   16   20   0.420   0.420        0
   260  3213-38-10      2   16   20   0.420   0.420        0
   261  3213-56-19      2   16   20   0.420   0.420        0
   262  3205-2-230     -2   17   18  -0.170   0.310        0
   263  3205-22-37     -2   17   18  -0.170   0.310        0
   264  3191-2-188      1   18   18  -0.250   0.340        0
   265  3178-17-4       2   18   18   0.440   0.430        0
   266  3178-22-37      2   18   18   0.440   0.430        0
   267  3178-32-85      2   18   18   0.440   0.430        0
   268  3178-36-65      2   18   18   0.440   0.430        0
   269  3178-42-349     2   18   18   0.440   0.430        0
   270  3178-48-341     2   18   18   0.440   0.430        0
   271  3178-56-23      2   18   18   0.440   0.430        0
   272  3178-60-319     2   18   18   0.440   0.430        0
   273  3177-17-4      -2   18   20   0.480  -0.330        0
   274  3176-11-297    -2   18   20   0.330   0.350        0
   275  3176-16-342    -2   18   20   0.330   0.350        0
   276  3176-21-342    -2   18   20   0.330   0.350        0
   277  3176-32-7       2   18   20   0.330   0.350        0
   278  3176-34-339     2   18   20   0.330   0.350        0
   279  3174-21-335     2   18   22   0.370   0.330        0
   280  3174-56-19      2   18   22   0.370   0.330        0
   281  3174-61-60      2   18   22   0.370   0.330        0
   282  3174-66-24      2   18   22   0.370   0.330        0
   283  3188-2-335      1   18   24  -0.120   0.400        0
   284  3188-6-341      1   18   24  -0.120   0.400        0
   285  3188-10-350     1   18   24  -0.120   0.400        0
   286  3199-38-6      -2   17   26   0.350   0.320        0
   287  3199-48-337    -2   17   26   0.350   0.320        0
   288  3199-61-60     -2   17   26   0.350   0.320        0
   289  3175-48-337     2   18   24   0.460   0.500        0
   290  3175-56-19      2   18   24   0.460   0.500        0
   291  3175-66-24      2   18   24   0.460   0.500        0
   292  3196-56-19      2   18   26  -0.460   0.480        0
   293  3171-21-335     2   19   26  -0.460   0.280        0
   294  3171-26-313     2   19   26  -0.460   0.280        0
   295  3171-48-337     2   19   26  -0.460   0.280        0
   296  3173-48-337     2   18   26   0.500   0.220        0
   297  3173-56-19      2   18   26   0.500   0.220        0
   298  3173-61-60      2   18   26   0.500   0.220        0
   299  3173-66-20      2   18   26   0.500   0.220        0
   300  3172-56-19      2   19   23  -0.470   0.430        0
   301  3172-61-60      2   19   23  -0.470   0.430        0
   302  3172-66-24      2   19   23  -0.470   0.430        0
   303  3163-12-91      2   20   24  -0.360   0.110        0
   304  3163-21-335     2   20   24  -0.360   0.110        0
   305  3197-42-351    -2   17   22   0.420   0.330        0
   306  3197-48-348    -2   17   22   0.420   0.330        0
   307  3197-56-4      -2   17   22   0.420   0.330        0
   308  3197-61-5      -2   17   22   0.420   0.330        0
   309  3197-65-361    -2   17   22   0.420   0.330        0
   310  3197-71-355    -2   17   22   0.420   0.330        0
   311  3170-16-348    -2   19   22  -0.090   0.450        0
   312  3170-21-342     2   19   22  -0.090   0.450        0
   313  3170-38-6       2   19   22  -0.090   0.450        0
   314  3170-42-351     2   19   22  -0.090   0.450        0
   315  3170-48-348     2   19   22  -0.090   0.450        0
   316  3170-55-354     2   19   22  -0.090   0.450        0
   317  3170-61-5       2   19   22  -0.090   0.450        0
   318  3170-65-361     2   19   22  -0.090   0.450        0
   319  3170-71-355     2   19   22  -0.090   0.450        0
   320  3139-21-343     2   20   21   0.360   0.440        0
   321  3139-71-355     2   20   21   0.360   0.440        0
   322  3143-17-5       2   20   22   0.330   0.320        0
   323  3143-22-37      2   20   22   0.330   0.320        0
   324  3143-27-31      2   20   22   0.330   0.320        0
   325  3143-55-354     2   20   22   0.330   0.320        0
   326  3143-61-5       2   20   22   0.330   0.320        0
   327  3143-65-361     2   20   22   0.330   0.320        0
   328  3143-71-355     2   20   22   0.330   0.320        0
   329  3166-1-1       -2   19   18   0.360   0.330        0
   330  3166-11-335    -2   19   18   0.360   0.330        0
   331  3166-21-335    -2   19   18   0.360   0.330        0
   332  3100-16-338     3   22   17   0.490   0.480        0
   333  3100-21-335    -2   22   17   0.490   0.480        0
   334  3100-43-60      3   22   17   0.490   0.480        0
   335  3100-55-354     3   22   17   0.490   0.480        0
   336  3100-61-5      -2   22   17   0.490   0.480        0
   337  3100-66-20     -2   22   17   0.490   0.480        0
   338  3100-71-355    -2   22   17   0.490   0.480        0
   339  2939-42-351     2   22   18   0.380   0.160        0
   340  2939-61-5       2   22   18   0.380   0.160        0
   341  2939-70-352     2   22   18   0.380   0.160        0
   342  2939-71-355     2   22   18   0.380   0.160        0
   343  3099-21-335    -2   22   18   0.380   0.230        0
   344  3099-61-5      -2   22   18   0.380   0.230        0
   345  3099-66-20     -2   22   18   0.380   0.230        0
   346  3099-71-355    -2   22   18   0.380   0.230        0
   347  3113-1-59       2   21   22   0.440   0.350        0
   348  3113-6-341      2   21   22   0.440   0.350        0
   349  3113-12-362     2   21   22   0.440   0.350        0
   350  3113-22-37      2   21   22   0.440   0.350        0
   351  3113-27-31      2   21   22   0.440   0.350        0
   352  3113-37-341     2   21   22   0.440   0.350        0
   353  3113-42-349     2   21   22   0.440   0.350        0
   354  3113-48-341     2   21   22   0.440   0.350        0
   355  3113-55-354     2   21   22   0.440   0.350        0
   356  3113-60-319     2   21   22   0.440   0.350        0
   357  3113-65-298     2   21   22   0.440   0.350        0
   358  3113-71-355     2   21   22   0.440   0.350        0
   359  3097-12-170     2   22   22   0.470   0.410        0
   360  3097-17-5       2   22   22   0.470   0.410        0
   361  3097-42-351     2   22   22   0.470   0.410        0
   362  3097-48-348     2   22   22   0.470   0.410        0
   363  3097-55-354     2   22   22   0.470   0.410        0
   364  3097-61-5       2   22   22   0.470   0.410        0
   365  3097-65-361     2   22   22   0.470   0.410        0
   366  3097-71-355     2   22   22   0.470   0.410        0
   367  3095-42-351     2   22   22   0.390   0.310        0
   368  3095-48-348     2   22   22   0.390   0.310        0
   369  3095-55-354     2   22   22   0.390   0.310        0
   370  3095-61-5       2   22   22   0.390   0.310        0
   371  3095-65-361     2   22   22   0.390   0.310        0
   372  3095-71-355     2   22   22   0.390   0.310        0
   373  3096-8-283     -2   22   24   0.360   0.360        0
   374  3096-17-5      -2   22   24   0.360   0.360        0
   375  3096-21-335     2   22   24   0.360   0.360        0
   376  3135-8-282     -2   20   26   0.490   0.410        0
   377  3135-11-355    -2   20   26   0.490   0.410        0
   378  3135-16-349    -2   20   26   0.490   0.410        0
   379  3135-21-312     2   20   26   0.490   0.410        0
   380  3135-26-292     2   20   26   0.490   0.410        0
   381  3135-38-5       2   20   26   0.490   0.410        0
   382  3135-48-337     2   20   26   0.490   0.410        0
   383  3135-56-19      2   20   26   0.490   0.410        0
   384  3135-61-60      2   20   26   0.490   0.410        0
   385  3121-55-354     2   21   25   0.020   0.370        0
   386  3121-61-5       2   21   25   0.020   0.370        0
   387  3121-66-20      2   21   25   0.020   0.370        0
   388  3121-71-365     2   21   25   0.020   0.370        0
   389  3059-10-57      1   24   26   0.200   0.400        0
   390  3059-17-5       1   24   26   0.200   0.400        0
   391  3059-27-31      2   24   26   0.200   0.400        0
   392  3059-37-33      2   24   26   0.200   0.400        0
   393  3059-42-349     2   24   26   0.200   0.400        0
   394  3059-48-342     2   24   26   0.200   0.400        0
   395  3059-56-20      2   24   26   0.200   0.400        0
   396  3059-60-319     2   24   26   0.200   0.400        0
   397  3059-65-301     1   24   26   0.200   0.400        0
   398  3059-71-365     1   24   26   0.200   0.400        0
   399  3078-21-335     2   23   24   0.390   0.360        0
   400  3080-11-297    -2   23   23   0.200  -0.360        0
   401  3075-56-20      2   24   24  -0.420   0.390        0
   402  3089-2-339      2   23   21  -0.080   0.080        0
   403  3089-6-341      2   23   21  -0.080   0.080        0
   404  3089-12-362     2   23   21  -0.080   0.080        0
   405  3089-16-313     2   23   21  -0.080   0.080        0
   406  3089-42-351     2   23   21  -0.080   0.080        0
   407  3089-65-361     2   23   21  -0.080   0.080        0
   408  3089-71-355     2   23   21  -0.080   0.080        0
   409  3053-11-297     2   24   21   0.450   0.010        0
   410  3053-16-349     2   24   21   0.450   0.010        0
   411  3053-22-37      2   24   21   0.450   0.010        0
   412  3053-32-85      2   24   21   0.450   0.010        0
   413  3053-42-351     2   24   21   0.450   0.010        0
   414  3053-48-348     2   24   21   0.450   0.010        0
   415  3053-55-353     2   24   21   0.450   0.010        0
   416  3053-61-5       2   24   21   0.450   0.010        0
   417  3053-65-361     2   24   21   0.450   0.010        0
   418  3053-71-355     2   24   21   0.450   0.010        0
   419  3050-55-353     2   24   21   0.490   0.010        0
   420  3050-61-5       2   24   21   0.490   0.010        0
   421  3050-65-361     2   24   21   0.490   0.010        0
   422  3050-71-355     2   24   21   0.490   0.010        0
   423  3076-37-33      3   24   22  -0.420   0.310        0
   424  3076-42-349     3   24   22  -0.420   0.310        0
   425  3076-48-342     3   24   22  -0.420   0.310        0
   426  3076-56-23      3   24   22  -0.420   0.310        0
   427  3076-61-60      3   24   22  -0.420   0.310        0
   428  3076-66-24      3   24   22  -0.420   0.310        0
   429  3077-55-354     3   23   17   0.450   0.480        0
   430  3077-61-5       3   23   17   0.450   0.480        0
   431  3077-66-20      3   23   17   0.450   0.480        0
   432  3077-71-355     3   23   17   0.450   0.480        0
   433  3065-48-348    -2   24   17  -0.210   0.440        0
   434  3021-1-107      2   26   18  -0.440   0.280        0
   435  3021-7-3        2   26   18  -0.440   0.280        0
   436  3020-7-3        3   26   18  -0.440   0.350        0
   437  3020-12-59      3   26   18  -0.440   0.350        0
   438  3020-16-314     3   26   18  -0.440   0.350        0
   439  3020-22-37      3   26   18  -0.440   0.350        0
   440  3020-27-31      3   26   18  -0.440   0.350        0
   441  2989-12-59      2   26   22   0.410  -0.480        0
   442  2995-16-313     1   26   26   0.230   0.070        0
   443  2995-22-37      2   26   26   0.230   0.070        0
   444  2995-27-31      2   26   26   0.230   0.070        0
   445  2995-32-85      2   26   26   0.230   0.070        0
   446  3201-48-300     3   17   32   0.140   0.060        0
   447  3201-55-321     3   17   32   0.140   0.060        0
   448  3201-60-312     3   17   32   0.140   0.060        0
   449  3201-65-363     3   17   32   0.140   0.060        0
   450  3201-71-10      3   17   32   0.140   0.060        0
   451  3202-48-300     2   17   32   0.140   0.060        0
   452  3202-55-321     2   17   32   0.140   0.060        0
   453  3202-60-312     2   17   32   0.140   0.060        0
   454  3202-65-363     2   17   32   0.140   0.060        0
   455  3202-71-10      2   17   32   0.140   0.060        0
   456  3200-21-335     3   18   36  -0.090   0.180        0
   457  3200-32-6       3   18   36  -0.090   0.180        0
   458  3200-36-351     3   18   36  -0.090   0.180        0
   459  3200-49-54      3   18   36  -0.090   0.180        0
   460  3200-56-24      3   18   36  -0.090   0.180        0
   461  3200-60-319     3   18   36  -0.090   0.180        0
   462  3200-65-298     3   18   36  -0.090   0.180        0
   463  3200-71-365     3   18   36  -0.090   0.180        0
   464  3154-1-337     -2   20   32   0.120  -0.340        0
   465  3154-6-286     -2   20   32   0.120  -0.340        0
   466  3154-11-298    -2   20   32   0.120  -0.340        0
   467  3154-16-358    -2   20   32   0.120  -0.340        0
   468  3154-21-343     2   20   32   0.120  -0.340        0
   469  3154-32-85      2   20   32   0.120  -0.340        0
   470  3154-37-33      2   20   32   0.120  -0.340        0
   471  3154-42-349     2   20   32   0.120  -0.340        0
   472  3150-48-337     2   20   32   0.160  -0.370        0
   473  3150-56-23      2   20   32   0.160  -0.370        0
   474  3150-60-319     2   20   32   0.160  -0.370        0
   475  3150-65-298     2   20   32   0.160  -0.370        0
   476  3150-71-11      2   20   32   0.160  -0.370        0
   477  3150-71-365     2   20   32   0.160  -0.370        0
   478  3158-12-85      2   20   32  -0.380  -0.140        0
   479  3158-16-342     2   20   32  -0.380  -0.140        0
   480  3158-21-346     2   20   32  -0.380  -0.140        0
   481  3158-56-25      2   20   32  -0.380  -0.140        0
   482  3158-61-55      2   20   32  -0.380  -0.140        0
   483  3158-66-19      2   20   32  -0.380  -0.140        0
   484  3179-8-1       -2   18   29   0.280   0.460        0
   485  3151-12-33      2   20   31   0.150  -0.410        0
   486  3151-16-342     2   20   31   0.150  -0.410        0
   487  3151-21-346     2   20   31   0.150  -0.410        0
   488  3151-56-23      2   20   31   0.150  -0.410        0
   489  3151-61-55      2   20   31   0.150  -0.410        0
   490  3151-66-18      2   20   31   0.150  -0.410        0
   491  3167-34-152     2   19   28   0.120  -0.260        0
   492  3103-38-3       2   22   29   0.100  -0.230        0
   493  3101-66-24     -2   22   29   0.180  -0.290        0
   494  3105-8-1       -2   22   31   0.180  -0.440        0
   495  3105-56-23      2   22   31   0.180  -0.440        0
   496  3105-61-55      2   22   31   0.180  -0.440        0
   497  3105-66-18      2   22   31   0.180  -0.440        0
   498  3142-12-1      -2   20   32   0.350   0.470        0
   499  3142-16-342    -2   20   32   0.350   0.470        0
   500  3142-56-24      2   20   32   0.350   0.470        0
   501  3142-61-55      2   20   32   0.350   0.470        0
   502  3142-66-19      2   20   32   0.350   0.470        0
   503  3138-21-346     2   20   32   0.390   0.470        0
   504  3138-56-24      2   20   32   0.390   0.470        0
   505  3138-61-55      2   20   32   0.390   0.470        0
   506  3138-66-19      2   20   32   0.390   0.470        0
   507  3119-48-337     2   21   32   0.190  -0.050        0
   508  3119-56-23      2   21   32   0.190  -0.050        0
   509  3119-61-60      2   21   32   0.190  -0.050        0
   510  3119-66-18      2   21   32   0.190  -0.050        0
   511  3130-2-305      1   21   32  -0.150   0.470        0
   512  3108-8-32      -2   22   33  -0.080  -0.200        0
   513  3104-56-26      2   22   34   0.070  -0.170        0
   514  3104-61-55      2   22   34   0.070  -0.170        0
   515  3104-66-19      2   22   34   0.070  -0.170        0
   516  3102-56-26     -2   22   34   0.110   0.000        0
   517  3102-61-55     -2   22   34   0.110   0.000        0
   518  3102-66-19     -2   22   34   0.110   0.000        0
   519  3140-48-300     3   20   35   0.350  -0.320        0
   520  3141-48-300     3   20   35   0.350  -0.320        0
   521  3061-66-19     -2   24   38   0.070  -0.470        0
   522  3085-1-337     -3   23   35   0.110   0.190        0
   523  3085-6-286     -3   23   35   0.110   0.190        0
   524  3085-11-361    -3   23   35   0.110   0.190        0
   525  3085-16-350    -3   23   35   0.110   0.190        0
   526  3085-21-346    -2   23   35   0.110   0.190        0
   527  3064-56-25      2   24   37  -0.050  -0.410        0
   528  3083-56-23     -2   23   34   0.150  -0.270        0
   529  3083-61-55     -2   23   34   0.150  -0.270        0
   530  3083-66-18     -2   23   34   0.150  -0.270        0
   531  3084-10-60     -2   23   32   0.140   0.080        0
   532  3084-48-341     2   23   32   0.140   0.080        0
   533  3084-56-23      2   23   32   0.140   0.080        0
   534  3084-61-55      2   23   32   0.140   0.080        0
   535  3084-66-18      2   23   32   0.140   0.080        0
   536  3081-48-341     2   23   32   0.180  -0.310        0
   537  3081-56-23      2   23   32   0.180  -0.310        0
   538  3081-61-55      2   23   32   0.180  -0.310        0
   539  3081-66-18      2   23   32   0.180  -0.310        0
   540  3079-1-365      1   23   32   0.370  -0.150        0
   541  3058-48-337     2   24   33   0.140  -0.400        0
   542  3058-56-23      2   24   33   0.140  -0.400        0
   543  3058-61-55      2   24   33   0.140  -0.400        0
   544  3058-66-18      2   24   33   0.140  -0.400        0
   545  3086-12-247    -2   23   31   0.100  -0.480        0
   546  3107-1-365      2   22   28  -0.050   0.480        0
   547  3107-11-334     2   22   28  -0.050   0.480        0
   548  3040-10-32      2   25   28   0.050   0.470        0
   549  3017-71-5       1   26   26  -0.310   0.490        0
   550  3017-71-365     1   26   26  -0.310   0.490        0
   551  3015-55-354     2   26   26  -0.270   0.490        0
   552  3015-71-5       2   26   26  -0.270   0.490        0
   553  3015-71-365     2   26   26  -0.270   0.490        0
   554  3054-10-32      2   24   31   0.330  -0.450        0
   555  3046-12-247     2   25   31  -0.370  -0.450        0
   556  3046-16-350     2   25   31  -0.370  -0.450        0
   557  3046-21-343     2   25   31  -0.370  -0.450        0
   558  3046-32-8       2   25   31  -0.370  -0.450        0
   559  3046-36-87      2   25   31  -0.370  -0.450        0
   560  3036-11-18     -2   25   31   0.170  -0.450        0
   561  3036-16-350    -2   25   31   0.170  -0.450        0
   562  3036-21-335    -2   25   31   0.170  -0.450        0
   563  3030-12-247    -2   25   33   0.250  -0.440        0
   564  3030-16-350    -2   25   33   0.250  -0.440        0
   565  3030-21-346    -2   25   33   0.250  -0.440        0
   566  3038-1-337     -3   25   35   0.140  -0.430        0
   567  3038-6-286     -3   25   35   0.140  -0.430        0
   568  3038-11-338    -3   25   35   0.140  -0.430        0
   569  3038-16-350    -3   25   35   0.140  -0.430        0
   570  3038-21-312    -3   25   35   0.140  -0.430        0
   571  3038-42-349    -3   25   35   0.140  -0.430        0
   572  3035-48-337    -2   25   35   0.140  -0.390        0
   573  3035-56-23     -2   25   35   0.140  -0.390        0
   574  3035-60-319    -2   25   35   0.140  -0.390        0
   575  3035-66-18     -2   25   35   0.140  -0.390        0
   576  3035-71-11     -2   25   35   0.140  -0.390        0
   577  3035-71-365    -2   25   35   0.140  -0.390        0
   578  3007-12-76     -3   26   35   0.090  -0.460        0
   579  3007-48-337    -2   26   35   0.090  -0.460        0
   580  3007-56-23     -2   26   35   0.090  -0.460        0
   581  3007-61-55      3   26   35   0.090  -0.460        0
   582  3007-66-18      3   26   35   0.090  -0.460        0
   583  3032-10-32     -3   25   36   0.220   0.260        0
   584  3032-48-337    -3   25   36   0.220   0.260        0
   585  3032-56-23     -3   25   36   0.220   0.260        0
   586  3032-61-55     -3   25   36   0.220   0.260        0
   587  3032-66-27     -3   25   36   0.220   0.260        0
   588  3006-56-23      2   26   36   0.100  -0.390        0
   589  3006-61-55      2   26   36   0.100  -0.390        0
   590  3006-66-18      2   26   36   0.100  -0.390        0
   591  3005-10-60      2   26   36   0.100   0.490        0
   592  3005-48-337     2   26   36   0.100   0.490        0
   593  3005-56-23      2   26   36   0.100   0.490        0
   594  3005-61-55      2   26   36   0.100   0.490        0
   595  3005-66-18      2   26   36   0.100   0.490        0
   596  3002-56-23      1   26   37   0.140   0.140        0
   597  3002-61-55      1   26   37   0.140   0.140        0
   598  3002-66-19      1   26   37   0.140   0.140        0
   599  3182-48-337     2   18   29   0.200  -0.380        0
   600  3182-56-19      2   18   29   0.200  -0.380        0
   601  3182-61-60      2   18   29   0.200  -0.380        0
   602  3182-66-27      2   18   29   0.200  -0.380        0
   603  3155-8-1        2   20   29   0.190  -0.390        0
   604  3155-48-337     2   20   29   0.190  -0.390        0
   605  3155-56-19      2   20   29   0.190  -0.390        0
   606  3155-66-24      2   20   29   0.190  -0.390        0
   607  2695-43-60      2   26   26  -0.340   0.490        0
   608  2695-55-354     2   26   26  -0.340   0.490        0
   609  2695-61-7       2   26   26  -0.340   0.490        0
   610  2695-65-361     2   26   26  -0.340   0.490        0
   611  2695-71-5       2   26   26  -0.340   0.490        0
   612  2695-71-365     2   26   26  -0.340   0.490        0
   613  3037-48-364     2   25   39   0.140  -0.270        0
   614  3009-56-25      2   26   40   0.030   0.450        0
   615  3009-61-55      2   26   40   0.030   0.450        0
   616  3001-56-25      2   26   41   0.140  -0.460        0
   617  3001-61-55      2   26   41   0.140  -0.460        0
   618  3004-17-1       3   26   46   0.110   0.130        0
   619  3004-22-1       3   26   46   0.110   0.130        0
   620  3004-27-32      3   26   46   0.110   0.130        0
   621  3004-37-36      3   26   46   0.110   0.130        0
   622  3004-66-24      3   26   46   0.110   0.130        0
   623  3004-71-57      3   26   46   0.110   0.130        0
   624  3010-48-334     2   26   51   0.000   0.120        0
   625  3010-56-27      2   26   51   0.000   0.120        0
   626  3039-42-364     3   25   56   0.080  -0.010        0
   627  3039-48-335     3   25   56   0.080  -0.010        0
   628  3039-56-25      3   25   56   0.080  -0.010        0
   629  3019-31-297     2   26   55  -0.340   0.150        0
   630  2997-36-32      2   26   56   0.230  -0.360        0
   631  2997-43-41      2   26   56   0.230  -0.360        0
   632  2997-48-334     2   26   56   0.230  -0.360        0
   633  3012-31-339     2   26   57  -0.080  -0.130        0
   634  3016-8-222      2   26   58  -0.270  -0.350        0
   635  3016-11-53      2   26   58  -0.270  -0.350        0
   636  3014-42-365     2   26   58  -0.110  -0.350        0
   637  3014-48-334     2   26   58  -0.110  -0.350        0
   638  3014-56-24      2   26   58  -0.110  -0.350        0
   639  3014-61-59      2   26   58  -0.110  -0.350        0
   640  3014-66-25      2   26   58  -0.110  -0.350        0
   641  3014-71-54      2   26   58  -0.110  -0.350        0
   642  3013-43-6       3   26   58  -0.040   0.300        0
   643  3013-48-335     3   26   58  -0.040   0.300        0
   644  3013-56-26      3   26   58  -0.040   0.300        0
   645  3013-66-28      3   26   58  -0.040   0.300        0
   646  3041-66-33      3   25   62   0.040   0.220        0
   647  3041-71-61      3   25   62   0.040   0.220        0
   648  3055-11-56      3   24   61   0.320  -0.330        0
   649  3055-43-6       3   24   61   0.320  -0.330        0
   650  3055-48-335     3   24   61   0.320  -0.330        0
   651  3055-56-19      3   24   61   0.320  -0.330        0
   652  3251-48-334     2   15   71  -0.290   0.240        0
   653  3246-56-26      2   15   71  -0.140   0.240        0
   654  3248-16-116     2   15   71  -0.260   0.240        0
   655  3248-21-116     2   15   71  -0.260   0.240        0
   656  3248-26-125     2   15   71  -0.260   0.240        0
   657  3248-31-111     2   15   71  -0.260   0.240        0
   658  3248-37-36      2   15   71  -0.260   0.240        0
   659  3248-43-81      2   15   71  -0.260   0.240        0
   660  3248-48-334     2   15   71  -0.260   0.240        0
   661  3248-56-26      2   15   71  -0.260   0.240        0
   662  3248-71-61      2   15   71  -0.260   0.240        0
   663  3242-56-26     -2   15   71  -0.030  -0.060        0
   664  3241-61-61      2   15   71   0.200   0.400        0
   665  3241-66-18      2   15   71   0.200   0.400        0
   666  3241-71-61      2   15   71   0.200   0.400        0
   667  3235-71-64      2   15   71   0.390  -0.090        0
   668  3221-66-33      2   16   69  -0.180   0.230        0
   669  3262-42-335     2   14   68  -0.060  -0.490        0
   670  3262-49-8       2   14   68  -0.060  -0.490        0
   671  3262-55-342     2   14   68  -0.060  -0.490        0
   672  3262-61-35      2   14   68  -0.060  -0.490        0
   673  3262-66-33      2   14   68  -0.060  -0.490        0
   674  3262-71-323     2   14   68  -0.060  -0.490        0
   675  3256-27-125    -2   15   67  -0.440  -0.300        0
   676  3256-37-36     -2   15   67  -0.440  -0.300        0
   677  3256-48-356    -2   15   67  -0.440  -0.300        0
   678  3256-55-342    -2   15   67  -0.440  -0.300        0
   679  3256-66-33     -2   15   67  -0.440  -0.300        0
   680  3256-71-323    -2   15   67  -0.440  -0.300        0
   681  3252-43-81      2   15   67  -0.330  -0.470        0
   682  3252-48-336     2   15   67  -0.330  -0.470        0
   683  3252-56-27      2   15   67  -0.330  -0.470        0
   684  3252-60-323     2   15   67  -0.330  -0.470        0
   685  3252-65-299     2   15   67  -0.330  -0.470        0
   686  3252-71-365     2   15   67  -0.330  -0.470        0
   687  3253-55-342     3   15   67  -0.410  -0.300        0
   688  3253-60-335     3   15   67  -0.410  -0.300        0
   689  3253-66-34      3   15   67  -0.410  -0.300        0
   690  3253-71-323     3   15   67  -0.410  -0.300        0
   691  3263-16-299    -2   16   67  -0.100  -0.240        0
   692  3263-26-127    -2   16   67  -0.100  -0.240        0
   693  3263-43-60     -2   16   67  -0.100  -0.240        0
   694  3263-48-356    -2   16   67  -0.100  -0.240        0
   695  3263-56-24     -2   16   67  -0.100  -0.240        0
   696  3263-66-33     -2   16   67  -0.100  -0.240        0
   697  3263-71-365    -2   16   67  -0.100  -0.240        0
   698  3224-56-27      2   16   68  -0.370   0.380        0
   699  3209-33-314     2   17   68  -0.380  -0.430        0
   700  3210-43-81     -2   17   67  -0.300  -0.040        0
   701  3210-48-336    -2   17   67  -0.300  -0.040        0
   702  3210-56-26     -2   17   67  -0.300  -0.040        0
   703  3195-33-32     -2   18   67  -0.420  -0.500        0
   704  3180-34-152    -2   18   67   0.080   0.310        0
   705  3184-66-28      2   18   68   0.080  -0.230        0
   706  3184-71-62      2   18   68   0.080  -0.230        0
   707  3186-66-28      2   18   68   0.040  -0.230        0
   708  3186-71-60      2   18   68   0.040  -0.230        0
   709  3183-66-31      2   18   68   0.080   0.450        0
   710  3207-43-7       2   17   70  -0.270   0.430        0
   711  3207-48-334     2   17   70  -0.270   0.430        0
   712  3207-56-26      2   17   70  -0.270   0.430        0
   713  3190-43-7       2   18   69  -0.120  -0.390        0
   714  3190-48-336     2   18   69  -0.120  -0.390        0
   715  3190-56-25      2   18   69  -0.120  -0.390        0
   716  3194-71-62      2   18   70  -0.430   0.200        0
   717  3192-66-34      2   18   70  -0.380   0.170        0
   718  3192-71-60      2   18   70  -0.380   0.170        0
   719  3187-43-7      -2   18   70   0.000  -0.160        0
   720  3187-48-334    -2   18   70   0.000  -0.160        0
   721  3203-71-62      2   17   71  -0.040  -0.480        0
   722  3165-71-62      2   19   69   0.480   0.360        0
   723  3148-43-7      -2   20   69   0.260  -0.420        0
   724  3157-71-62      2   20   69  -0.050   0.340        0
   725  3152-71-62      2   20   69   0.220   0.290        0
   726  3169-43-8       3   19   67   0.110   0.440        0
   727  3169-48-336     3   19   67   0.110   0.440        0
   728  3169-66-34      3   19   67   0.110   0.440        0
   729  3169-71-61      2   19   67   0.110   0.440        0
   730  3168-43-7      -2   19   66  -0.310   0.240        0
   731  3168-56-26     -2   19   66  -0.310   0.240        0
   732  3168-66-34     -2   19   66  -0.310   0.240        0
   733  3156-27-289    -2   20   67  -0.120   0.380        0
   734  3144-43-7      -2   20   67   0.330  -0.070        0
   735  3144-56-25     -2   20   67   0.330  -0.070        0
   736  3144-66-34     -2   20   67   0.330  -0.070        0
   737  3144-71-60     -2   20   67   0.330  -0.070        0
   738  3110-43-5       2   22   67  -0.290  -0.140        0
   739  3110-48-335     2   22   67  -0.290  -0.140        0
   740  3136-43-7      -2   20   69   0.490   0.330        0
   741  3136-48-334    -2   20   69   0.490   0.330        0
   742  3136-56-26     -2   20   69   0.490   0.330        0
   743  3136-66-35     -2   20   69   0.490   0.330        0
   744  3136-71-61     -2   20   69   0.490   0.330        0
   745  3093-5-82       2   23   68  -0.290  -0.200        0
   746  3093-6-97       2   23   68  -0.290  -0.200        0
   747  3093-16-133     2   23   68  -0.290  -0.200        0
   748  3093-26-124     2   23   68  -0.290  -0.200        0
   749  3093-37-37      2   23   68  -0.290  -0.200        0
   750  3093-43-7       2   23   68  -0.290  -0.200        0
   751  3094-48-337    -2   20   64   0.370   0.300        0
   752  3094-66-33     -2   20   64   0.370   0.300        0
   753  3094-71-61     -2   20   64   0.370   0.300        0
   754  3057-48-337     2   24   63   0.240   0.000        0
   755  3057-56-25      2   24   63   0.240   0.000        0
   756  3011-48-337    -2   26   63  -0.110   0.040        0
   757  3011-66-33     -2   26   63  -0.110   0.040        0
   758  3011-71-61     -2   26   63  -0.110   0.040        0
   759  3026-48-337    -2   25   64   0.460  -0.250        0
   760  3026-56-25     -2   25   64   0.460  -0.250        0
   761  2999-16-361    -2   26   65   0.270  -0.410        0
   762  2999-22-31     -2   26   65   0.270  -0.410        0
   763  2999-27-11     -2   26   65   0.270  -0.410        0
   764  2999-31-351    -2   26   65   0.270  -0.410        0
   765  2999-37-343    -2   26   65   0.270  -0.410        0
   766  2999-56-25     -2   26   65   0.270  -0.410        0
   767  2999-66-33     -2   26   65   0.270  -0.410        0
   768  2999-71-61     -2   26   65   0.270  -0.410        0
   769  2994-43-5       2   26   65   0.270  -0.050        0
   770  2994-56-25      2   26   65   0.270  -0.050        0
   771  3029-48-336     3   25   67   0.420  -0.460        0
   772  3029-56-26      3   25   67   0.420  -0.460        0
   773  3029-66-33      3   25   67   0.420  -0.460        0
   774  3008-48-336     2   26   69   0.030  -0.250        0
   775  3008-56-26      2   26   69   0.030  -0.250        0
   776  2963-1-107      2   28   22  -0.140   0.270        0
   777  2948-17-4       2   28   22   0.360  -0.120        0
   778  2982-48-348     3   27   20   0.470  -0.300        0
   779  2982-55-354     3   27   20   0.470  -0.300        0
   780  2982-61-7       3   27   20   0.470  -0.300        0
   781  2982-66-55      3   27   20   0.470  -0.300        0
   782  2982-71-355     3   27   20   0.470  -0.300        0
   783  2968-71-365     2   28   20  -0.330   0.290        0
   784  2951-42-351     2   28   20   0.470  -0.430        0
   785  2951-48-348     2   28   20   0.470  -0.430        0
   786  2951-55-354     2   28   20   0.470  -0.430        0
   787  2951-61-5       2   28   20   0.470  -0.430        0
   788  2951-66-20      2   28   20   0.470  -0.430        0
   789  2951-71-355     2   28   20   0.470  -0.430        0
   790  2950-12-335     3   28   20   0.470   0.060        0
   791  2950-55-354     3   28   20   0.470   0.060        0
   792  2945-1-107      2   29   18  -0.270   0.470        0
   793  2945-7-3        2   29   18  -0.270   0.470        0
   794  2945-10-320     2   29   18  -0.270   0.470        0
   795  2902-42-351     2   30   20   0.460  -0.180        0
   796  2902-48-348     2   30   20   0.460  -0.180        0
   797  2902-55-354     2   30   20   0.460  -0.180        0
   798  2902-61-5       2   30   20   0.460  -0.180        0
   799  2902-66-20      2   30   20   0.460  -0.180        0
   800  2902-71-355     2   30   20   0.460  -0.180        0
   801  2906-12-332     3   30   20   0.420   0.380        0
   802  2906-17-4      -2   30   20   0.420   0.380        0
   803  2906-22-34     -2   30   20   0.420   0.380        0
   804  2906-32-85      3   30   20   0.420   0.380        0
   805  2906-37-33     -2   30   20   0.420   0.380        0
   806  2906-48-365    -2   30   20   0.420   0.380        0
   807  2906-55-354    -2   30   20   0.420   0.380        0
   808  2906-61-5      -2   30   20   0.420   0.380        0
   809  2906-66-20     -2   30   20   0.420   0.380        0
   810  2906-71-365    -2   30   20   0.420   0.380        0
   811  2922-16-313     2   29   23   0.430  -0.120        0
   812  2922-22-34      2   29   23   0.430  -0.120        0
   813  2922-27-13      2   29   23   0.430  -0.120        0
   814  2559-17-6      -3   29   25   0.480  -0.240        0
   815  2559-42-351    -2   29   25   0.480  -0.240        0
   816  2559-48-348    -2   29   25   0.480  -0.240        0
   817  2559-56-3      -2   29   25   0.480  -0.240        0
   818  2559-66-20     -3   29   25   0.480  -0.240        0
   819  2559-71-365    -3   29   25   0.480  -0.240        0
   820  2920-1-109      2   29   19   0.500  -0.110        0
   821  2901-42-351     2   30   25   0.400  -0.080        0
   822  2901-55-355     2   30   25   0.400  -0.080        0
   823  2901-61-5       2   30   25   0.400  -0.080        0
   824  2901-66-20      2   30   25   0.400  -0.080        0
   825  2901-71-365     2   30   25   0.400  -0.080        0
   826  2905-17-6      -2   30   25   0.430  -0.080        0
   827  2905-22-34     -2   30   25   0.430  -0.080        0
   828  2905-42-351     2   30   25   0.430  -0.080        0
   829  2905-71-50     -2   30   25   0.430  -0.080        0
   830  2905-71-365    -2   30   25   0.430  -0.080        0
   831  2907-42-351     3   30   25   0.210  -0.080        0
   832  2907-48-348     3   30   25   0.210  -0.080        0
   833  2907-55-355     3   30   25   0.210  -0.080        0
   834  2907-61-5       3   30   25   0.210  -0.080        0
   835  2907-66-20      3   30   25   0.210  -0.080        0
   836  2907-71-365     2   30   25   0.210  -0.080        0
   837  2900-17-6      -2   30   26   0.440  -0.140        0
   838  2900-56-20      2   30   26   0.440  -0.140        0
   839  2900-66-26      2   30   26   0.440  -0.140        0
   840  2874-3-290      2   31   23   0.420  -0.390        0
   841  2838-3-1        2   32   23   0.340  -0.390        0
   842  2809-16-354    -2   33   18   0.480   0.160        0
   843  2788-1-105      2   34   18   0.240   0.160        0
   844  2788-7-3        2   34   18   0.240   0.160        0
   845  2788-11-311     2   34   18   0.240   0.160        0
   846  2780-12-173     3   34   18   0.470   0.410        0
   847  2780-16-354     3   34   18   0.470   0.410        0
   848  2780-37-33      3   34   18   0.470   0.410        0
   849  2779-16-354    -2   34   20   0.480   0.040        0
   850  2779-22-34     -2   34   20   0.480   0.040        0
   851  2777-16-354     2   34   24   0.410  -0.030        0
   852  2787-16-335    -2   34   24   0.410   0.000        0
   853  2787-22-34      2   34   24   0.410   0.000        0
   854  2787-34-351     2   34   24   0.410   0.000        0
   855  2787-56-25      2   34   24   0.410   0.000        0
   856  2787-61-52      2   34   24   0.410   0.000        0
   857  2787-66-25      2   34   24   0.410   0.000        0
   858  2783-17-6      -2   34   25   0.450   0.400        0
   859  2783-56-25      2   34   25   0.450   0.400        0
   860  2783-66-20     -2   34   25   0.450   0.400        0
   861  2783-71-365    -2   34   25   0.450   0.400        0
   862  2790-66-20     -2   34   25   0.450   0.300        0
   863  2790-71-365    -2   34   25   0.450   0.300        0
   864  2745-16-354    -2   35   24   0.100   0.390        0
   865  2745-66-20     -2   35   24   0.100   0.390        0
   866  2745-71-365    -2   35   24   0.100   0.390        0
   867  2775-1-86       2   35   23  -0.480  -0.070        0
   868  2775-7-68       2   35   23  -0.480  -0.070        0
   869  2731-48-348    -2   35   24   0.480   0.360        0
   870  2731-55-354    -2   35   24   0.480   0.360        0
   871  2731-61-5      -2   35   24   0.480   0.360        0
   872  2731-66-20     -2   35   24   0.480   0.360        0
   873  2731-71-365    -2   35   24   0.480   0.360        0
   874  2771-22-21      2   35   21  -0.410  -0.440        0
   875  2718-17-6      -2   36   22  -0.140   0.280        0
   876  2718-27-13     -2   36   22  -0.140   0.280        0
   877  2769-56-26      3   34   16   0.460   0.040        0
   878  2769-61-55      3   34   16   0.460   0.040        0
   879  2769-66-26      3   34   16   0.460   0.040        0
   880  2758-7-344      3   35   15  -0.120  -0.420        0
   881  2675-48-348     3   37   15   0.100   0.130        0
   882  2675-61-4       3   37   15   0.100   0.130        0
   883  2675-66-20      3   37   15   0.100   0.130        0
   884  2675-71-365     3   37   15   0.100   0.130        0
   885  2637-42-351     3   38   16   0.370  -0.200        0
   886  2637-48-349     3   38   16   0.370  -0.200        0
   887  2637-55-355     3   38   16   0.370  -0.200        0
   888  2637-61-4       3   38   16   0.370  -0.200        0
   889  2637-66-51      3   38   16   0.370  -0.200        0
   890  2637-71-365     3   38   16   0.370  -0.200        0
   891  2641-16-355    -2   38   18   0.450   0.300        0
   892  2641-56-25     -2   38   18   0.450   0.300        0
   893  2641-61-53     -2   38   18   0.450   0.300        0
   894  2641-66-26     -2   38   18   0.450   0.300        0
   895  2640-42-351     3   38   19   0.420   0.050        0
   896  2640-48-348     3   38   19   0.420   0.050        0
   897  2640-55-355     3   38   19   0.420   0.050        0
   898  2640-61-4       3   38   19   0.420   0.050        0
   899  2640-66-20      3   38   19   0.420   0.050        0
   900  2640-71-4       3   38   19   0.420   0.050        0
   901  2640-71-365     3   38   19   0.420   0.050        0
   902  2636-42-351     3   38   19   0.380   0.150        0
   903  2636-48-348     3   38   19   0.380   0.150        0
   904  2636-55-355     3   38   19   0.380   0.150        0
   905  2636-61-4       3   38   19   0.380   0.150        0
   906  2636-66-20      3   38   19   0.380   0.150        0
   907  2636-71-5       3   38   19   0.380   0.150        0
   908  2636-71-365     3   38   19   0.380   0.150        0
   909  2639-12-178    -2   38   20   0.380   0.350        0
   910  2639-16-354    -2   38   20   0.380   0.350        0
   911  2639-42-351    -2   38   20   0.380   0.350        0
   912  2639-48-348    -2   38   20   0.380   0.350        0
   913  2639-71-50     -2   38   20   0.380   0.350        0
   914  2639-71-365    -2   38   20   0.380   0.350        0
   915  2654-56-25      3   38   21   0.150  -0.260        0
   916  2654-61-52      3   38   21   0.150  -0.260        0
   917  2978-1-364      1   27   38   0.130  -0.180        0
   918  2978-4-93       1   27   38   0.130  -0.180        0
   919  2964-48-300     3   28   39  -0.220  -0.370        0
   920  2964-55-321     3   28   39  -0.220  -0.370        0
   921  2964-60-313     3   28   39  -0.220  -0.370        0
   922  2964-65-364     3   28   39  -0.220  -0.370        0
   923  2964-71-349     3   28   39  -0.220  -0.370        0
   924  2965-71-350     2   28   39  -0.220  -0.370        0
   925  2985-17-5       1   27   31  -0.450   0.460        0
   926  2985-56-24      2   27   31  -0.450   0.460        0
   927  2985-61-56      2   27   31  -0.450   0.460        0
   928  2985-66-18      2   27   31  -0.450   0.460        0
   929  2913-56-23      2   30   28   0.210  -0.480        0
   930  2921-1-86       2   29   29   0.410  -0.080        0
   931  2921-7-3        2   29   29   0.410  -0.080        0
   932  2921-10-320     2   29   29   0.410  -0.080        0
   933  2921-12-361     2   29   29   0.410  -0.080        0
   934  2938-56-26      2   29   33   0.150  -0.410        0
   935  2938-61-59      2   29   33   0.150  -0.410        0
   936  2938-66-20      2   29   33   0.150  -0.410        0
   937  2935-22-34      2   29   32   0.230  -0.360        0
   938  2935-27-20      2   29   32   0.230  -0.360        0
   939  2935-56-24      2   29   32   0.230  -0.360        0
   940  2935-61-56      2   29   32   0.230  -0.360        0
   941  2935-66-19      2   29   32   0.230  -0.360        0
   942  2943-48-275     3   29   34  -0.230   0.440        0
   943  2944-48-275     2   29   34  -0.230   0.440        0
   944  2936-56-24     -2   29   38   0.120   0.490        0
   945  2936-61-55     -2   29   38   0.120   0.490        0
   946  2937-17-5      -2   29   37   0.120   0.130        0
   947  2937-22-34     -2   29   37   0.120   0.130        0
   948  2937-32-85     -2   29   37   0.120   0.130        0
   949  2937-42-349    -2   29   37   0.120   0.130        0
   950  2937-48-341    -2   29   37   0.120   0.130        0
   951  2937-56-24     -2   29   37   0.120   0.130        0
   952  2937-65-302    -2   29   37   0.120   0.130        0
   953  2915-12-6      -2   30   39  -0.380  -0.380        0
   954  2915-17-5      -2   30   39  -0.380  -0.380        0
   955  2915-56-24     -2   30   39  -0.380  -0.380        0
   956  2915-61-56     -2   30   39  -0.380  -0.380        0
   957  2915-66-19     -2   30   39  -0.380  -0.380        0
   958  2863-48-275     3   32   35  -0.130  -0.240        0
   959  2864-48-275     2   32   35  -0.130  -0.240        0
   960  2885-17-5       2   31   34  -0.120   0.110        0
   961  2885-56-24      2   31   34  -0.120   0.110        0
   962  2885-61-56      2   31   34  -0.120   0.110        0
   963  2867-17-6       2   32   33  -0.400  -0.390        0
   964  2867-21-335     2   32   33  -0.400  -0.390        0
   965  2867-56-24      2   32   33  -0.400  -0.390        0
   966  2867-61-56      2   32   33  -0.400  -0.390        0
   967  2867-66-19      2   32   33  -0.400  -0.390        0
   968  2887-56-24     -2   31   30   0.100  -0.110        0
   969  2887-66-19     -2   31   30   0.100  -0.110        0
   970  2886-17-6       2   31   31   0.100  -0.430        0
   971  2886-56-24      2   31   31   0.100  -0.430        0
   972  2886-61-56      2   31   31   0.100  -0.430        0
   973  2886-66-27      2   31   31   0.100  -0.430        0
   974  2850-1-86       1   32   29   0.130  -0.410        0
   975  2850-7-4        1   32   29   0.130  -0.410        0
   976  2850-12-361     1   32   29   0.130  -0.410        0
   977  2837-12-284    -2   32   31   0.210  -0.370        0
   978  2837-16-354     2   32   31   0.210  -0.370        0
   979  2837-22-34      2   32   31   0.210  -0.370        0
   980  2837-32-85      2   32   31   0.210  -0.370        0
   981  2837-37-34      2   32   31   0.210  -0.370        0
   982  2837-42-349     2   32   31   0.210  -0.370        0
   983  2837-48-341     2   32   31   0.210  -0.370        0
   984  2837-56-24      2   32   31   0.210  -0.370        0
   985  2837-60-319     2   32   31   0.210  -0.370        0
   986  2837-65-298    -2   32   31   0.210  -0.370        0
   987  2837-71-11     -2   32   31   0.210  -0.370        0
   988  2837-71-365    -2   32   31   0.210  -0.370        0
   989  2818-17-6       2   33   31   0.170  -0.470        0
   990  2818-56-24      2   33   31   0.170  -0.470        0
   991  2818-61-52      2   33   31   0.170  -0.470        0
   992  2818-66-25      2   33   31   0.170  -0.470        0
   993  2800-48-348     2   34   31  -0.070  -0.470        0
   994  2800-55-355     2   34   31  -0.070  -0.470        0
   995  2800-61-7       2   34   31  -0.070  -0.470        0
   996  2800-65-341     2   34   31  -0.070  -0.470        0
   997  2800-71-50      2   34   31  -0.070  -0.470        0
   998  2800-71-365     2   34   31  -0.070  -0.470        0
   999  2786-56-24      2   34   31   0.270  -0.440        0
  1000  2786-61-52      2   34   31   0.270  -0.440        0
  1001  2786-66-25      2   34   31   0.270  -0.440        0
  1002  2770-1-86       2   35   31  -0.380  -0.440        0
  1003  2770-7-4        2   35   31  -0.380  -0.440        0
  1004  2770-12-361     2   35   31  -0.380  -0.440        0
  1005  2744-56-24      2   35   30   0.150  -0.190        0
  1006  2740-56-24      2   35   30   0.190   0.010        0
  1007  2741-17-6       2   35   30   0.190  -0.410        0
  1008  2694-1-86       2   36   31   0.460  -0.180        0
  1009  2694-5-67       2   36   31   0.460  -0.180        0
  1010  2643-2-60       2   38   33   0.300  -0.170        0
  1011  2643-6-284      2   38   33   0.300  -0.170        0
  1012  2643-11-275     2   38   33   0.300  -0.170        0
  1013  2933-56-23      2   29   28   0.180  -0.410        0
  1014  2851-16-354     2   32   28   0.010  -0.450        0
  1015  2851-65-341     2   32   28   0.010  -0.450        0
  1016  2851-71-50      2   32   28   0.010  -0.450        0
  1017  2851-71-365     2   32   28   0.010  -0.450        0
  1018  2854-65-341     2   32   28   0.160   0.230        0
  1019  2854-71-50      2   32   28   0.160   0.230        0
  1020  2854-71-365     2   32   28   0.160   0.230        0
  1021  2796-61-52      2   34   28   0.190   0.420        0
  1022  2796-66-33      2   34   28   0.190   0.420        0
  1023  2712-42-351     2   36   28   0.180  -0.330        0
  1024  2712-48-348     2   36   28   0.180  -0.330        0
  1025  2712-56-27      2   36   28   0.180  -0.330        0
  1026  2712-61-7       2   36   28   0.180  -0.330        0
  1027  2712-66-55      2   36   28   0.180  -0.330        0
  1028  2712-71-365     2   36   28   0.180  -0.330        0
  1029  2709-55-355     3   36   28   0.110   0.090        0
  1030  2709-61-7       3   36   28   0.110   0.090        0
  1031  2709-65-341     3   36   28   0.110   0.090        0
  1032  2709-71-365     3   36   28   0.110   0.090        0
  1033  2702-42-351     2   36   28   0.140   0.090        0
  1034  2702-48-348     2   36   28   0.140   0.090        0
  1035  2702-56-27      2   36   28   0.140   0.090        0
  1036  2702-61-7       2   36   28   0.140   0.090        0
  1037  2702-65-341     2   36   28   0.140   0.090        0
  1038  2702-71-365     2   36   28   0.140   0.090        0
  1039  2711-39-335     2   36   29   0.150  -0.460        0
  1040  2711-56-26      2   36   29   0.150  -0.460        0
  1041  2711-61-7       2   36   29   0.150  -0.460        0
  1042  2711-65-341     2   36   29   0.150  -0.460        0
  1043  2711-71-365     2   36   29   0.150  -0.460        0
  1044  2713-42-351     2   36   29  -0.010  -0.360        0
  1045  2713-56-26      2   36   29  -0.010  -0.360        0
  1046  2713-61-7       2   36   29  -0.010  -0.360        0
  1047  2713-65-341     2   36   29  -0.010  -0.360        0
  1048  2713-71-365     2   36   29  -0.010  -0.360        0
  1049  2682-56-23      2   37   32  -0.230   0.340        0
  1050  2682-61-53      2   37   32  -0.230   0.340        0
  1051  2682-66-28      2   37   32  -0.230   0.340        0
  1052  2866-12-332     2   32   26  -0.380   0.440        0
  1053  2866-17-6       2   32   26  -0.380   0.440        0
  1054  2998-43-6       2   26   49   0.230   0.140        0
  1055  3416-56-26      2   27   42  -0.090  -0.030        0
  1056  3416-61-55      2   27   42  -0.090  -0.030        0
  1057  3416-66-19      2   27   42  -0.090  -0.030        0
  1058  2986-8-305      1   27   41  -0.400  -0.290        0
  1059  2960-1-365      1   28   41   0.060  -0.260        0
  1060  2961-56-25     -2   28   42   0.210   0.070        0
  1061  2961-61-59     -2   28   42   0.210   0.070        0
  1062  2961-66-19     -2   28   42   0.210   0.070        0
  1063  2957-56-25     -2   28   42   0.210   0.490        0
  1064  2957-61-59     -2   28   42   0.210   0.490        0
  1065  2988-1-51       1   27   40  -0.440  -0.500        0
  1066  2984-8-213      1   27   40  -0.210  -0.500        0
  1067  2971-7-60       1   27   40   0.440   0.480        0
  1068  2969-56-25     -2   27   40   0.440   0.440        0
  1069  2969-61-55     -2   27   40   0.440   0.440        0
  1070  2969-66-19     -2   27   40   0.440   0.440        0
  1071  2976-56-25      1   27   40   0.370   0.120        0
  1072  2976-61-55      1   27   40   0.370   0.120        0
  1073  2976-66-19      1   27   40   0.370   0.120        0
  1074  2972-56-25      2   28   40  -0.480  -0.010        0
  1075  2972-66-19      2   28   40  -0.480  -0.010        0
  1076  2919-21-335     2   30   39  -0.340  -0.310        0
  1077  2946-56-25     -2   29   42  -0.410   0.070        0
  1078  2946-66-19     -2   29   42  -0.410   0.070        0
  1079  2927-22-17     -2   29   42   0.090  -0.390        0
  1080  2927-27-32     -2   29   42   0.090  -0.390        0
  1081  2955-8-276     -2   28   41   0.250  -0.390        0
  1082  2955-12-40     -2   28   41   0.250  -0.390        0
  1083  2955-17-1      -2   28   41   0.250  -0.390        0
  1084  2955-27-32     -2   28   41   0.250  -0.390        0
  1085  2955-32-12     -2   28   41   0.250  -0.390        0
  1086  2955-37-1      -2   28   41   0.250  -0.390        0
  1087  2926-56-26      1   29   42   0.440   0.130        0
  1088  2926-61-59      1   29   42   0.440   0.130        0
  1089  2942-1-365      1   29   43  -0.210   0.230        0
  1090  2916-56-25      1   30   43  -0.220  -0.290        0
  1091  2916-61-59      1   30   43  -0.220  -0.290        0
  1092  2916-66-20      1   30   43  -0.220  -0.290        0
  1093  2941-42-364     2   29   47  -0.210  -0.160        0
  1094  2941-48-335     2   29   47  -0.210  -0.160        0
  1095  2941-56-23      2   29   47  -0.210  -0.160        0
  1096  2941-61-59      2   29   47  -0.210  -0.160        0
  1097  2941-66-26      2   29   47  -0.210  -0.160        0
  1098  2941-71-54      2   29   47  -0.210  -0.160        0
  1099  3185-34-152     2   30   48  -0.440   0.460        0
  1100  2925-42-364     2   29   48   0.440  -0.160        0
  1101  2925-48-335     2   29   48   0.440  -0.160        0
  1102  2925-56-23      2   29   48   0.440  -0.160        0
  1103  2925-66-26      2   29   48   0.440  -0.160        0
  1104  2925-71-54      2   29   48   0.440  -0.160        0
  1105  2954-42-363     2   28   50   0.410  -0.370        0
  1106  2954-56-23      2   28   50   0.410  -0.370        0
  1107  2954-61-59      2   28   50   0.410  -0.370        0
  1108  2954-66-27      2   28   50   0.410  -0.370        0
  1109  2889-42-364     2   31   49  -0.180  -0.310        0
  1110  2889-48-336     2   31   49  -0.180  -0.310        0
  1111  2889-56-24      2   31   49  -0.180  -0.310        0
  1112  2880-22-18      2   31   50   0.240  -0.210        0
  1113  2880-27-32      2   31   50   0.240  -0.210        0
  1114  2880-38-1       2   31   50   0.240  -0.210        0
  1115  2880-42-363     2   31   50   0.240  -0.210        0
  1116  2893-1-274      2   31   48  -0.330   0.490        0
  1117  2893-4-279      2   31   48  -0.330   0.490        0
  1118  2893-5-285      2   31   48  -0.330   0.490        0
  1119  2893-12-46      2   31   48  -0.330   0.490        0
  1120  2893-17-19      2   31   48  -0.330   0.490        0
  1121  2893-22-1       2   31   48  -0.330   0.490        0
  1122  2893-27-32      2   31   48  -0.330   0.490        0
  1123  2893-32-14      2   31   48  -0.330   0.490        0
  1124  2893-38-1       2   31   48  -0.330   0.490        0
  1125  2896-42-363     2   31   47  -0.370   0.360        0
  1126  2853-42-364     2   32   49   0.010  -0.440        0
  1127  2853-48-336     2   32   49   0.010  -0.440        0
  1128  2853-56-24      2   32   49   0.010  -0.440        0
  1129  2853-61-59      2   32   49   0.010  -0.440        0
  1130  2853-66-27      2   32   49   0.010  -0.440        0
  1131  2853-71-55      2   32   49   0.010  -0.440        0
  1132  2858-42-363     1   32   46   0.080  -0.430        0
  1133  2858-48-336     1   32   46   0.080  -0.430        0
  1134  2858-56-24      1   32   46   0.080  -0.430        0
  1135  2858-61-59      1   32   46   0.080  -0.430        0
  1136  2858-66-27      1   32   46   0.080  -0.430        0
  1137  2858-71-62      1   32   46   0.080  -0.430        0
  1138  2904-2-1       -2   30   43   0.360   0.460        0
  1139  2892-1-360     -2   31   43  -0.260   0.460        0
  1140  2892-7-65      -2   31   43  -0.260   0.460        0
  1141  2892-11-334    -2   31   43  -0.260   0.460        0
  1142  2892-16-318    -2   31   43  -0.260   0.460        0
  1143  2892-22-34     -2   31   43  -0.260   0.460        0
  1144  2892-27-32     -2   31   43  -0.260   0.460        0
  1145  2892-31-351    -2   31   43  -0.260   0.460        0
  1146  2892-36-50     -2   31   43  -0.260   0.460        0
  1147  2909-56-25     -2   30   43   0.240   0.070        0
  1148  2909-61-59     -2   30   43   0.240   0.070        0
  1149  2909-66-19     -2   30   43   0.240   0.070        0
  1150  2911-56-25     -2   30   43   0.200  -0.120        0
  1151  2911-61-59     -2   30   43   0.200  -0.120        0
  1152  2911-66-19     -2   30   43   0.200  -0.120        0
  1153  2884-66-32      2   31   43   0.160   0.330        0
  1154  2865-8-91       2   32   43  -0.340  -0.350        0
  1155  2865-48-342     2   32   43  -0.340  -0.350        0
  1156  2848-66-32     -2   32   45   0.150  -0.410        0
  1157  2881-48-342     3   31   43   0.200  -0.420        0
  1158  2859-8-121      2   32   42   0.040   0.290        0
  1159  2871-56-24      2   32   39  -0.310  -0.280        0
  1160  2871-61-59      2   32   39  -0.310  -0.280        0
  1161  2871-66-27      2   32   39  -0.310  -0.280        0
  1162  2811-17-6       2   32   39   0.150  -0.380        0
  1163  2811-22-34      2   32   39   0.150  -0.380        0
  1164  2811-56-24      2   32   39   0.150  -0.380        0
  1165  2811-61-59      2   32   39   0.150  -0.380        0
  1166  2834-48-342     2   32   43   0.460  -0.420        0
  1167  2835-48-342     3   32   43   0.500  -0.420        0
  1168  2835-56-24      3   32   43   0.500  -0.420        0
  1169  2849-42-363     1   32   44   0.150   0.370        0
  1170  2849-48-336     1   32   44   0.150   0.370        0
  1171  2828-55-343     3   33   44  -0.310   0.370        0
  1172  2828-61-38      3   33   44  -0.310   0.370        0
  1173  2828-66-55      3   33   44  -0.310   0.370        0
  1174  2828-71-365     3   33   44  -0.310   0.370        0
  1175  2846-8-32      -3   32   44   0.190  -0.410        0
  1176  2847-56-24     -3   32   43   0.190   0.200        0
  1177  2833-1-283      1   33   43  -0.460   0.000        0
  1178  2821-43-27     -2   33   44   0.190  -0.410        0
  1179  2821-48-334    -2   33   44   0.190  -0.410        0
  1180  2821-56-23     -2   33   44   0.190  -0.410        0
  1181  2821-61-54     -2   33   44   0.190  -0.410        0
  1182  2821-66-13     -2   33   44   0.190  -0.410        0
  1183  2817-1-364      1   33   44   0.190  -0.410        0
  1184  2805-48-334    -2   34   44  -0.430  -0.410        0
  1185  2805-56-23     -2   34   44  -0.430  -0.410        0
  1186  2805-61-53     -2   34   44  -0.430  -0.410        0
  1187  2805-66-20     -2   34   44  -0.430  -0.410        0
  1188  2798-8-32      -2   34   44   0.070  -0.280        0
  1189  2792-48-334     2   34   44   0.140   0.110        0
  1190  2792-56-23      2   34   44   0.140   0.110        0
  1191  2792-61-53      2   34   44   0.140   0.110        0
  1192  2792-66-20      2   34   44   0.140   0.110        0
  1193  2820-3-338      2   33   46   0.070   0.120        0
  1194  2820-6-224      2   33   46   0.070   0.120        0
  1195  2820-7-11       2   33   46   0.070   0.120        0
  1196  2820-12-46      2   33   46   0.070   0.120        0
  1197  2820-17-19      2   33   46   0.070   0.120        0
  1198  2820-22-17      2   33   46   0.070   0.120        0
  1199  2820-27-32      2   33   46   0.070   0.120        0
  1200  2820-31-351     2   33   46   0.070   0.120        0
  1201  2820-37-28      2   33   46   0.070   0.120        0
  1202  2820-48-334     2   33   46   0.070   0.120        0
  1203  2820-56-23      2   33   46   0.070   0.120        0
  1204  2820-60-319     2   33   46   0.070   0.120        0
  1205  2820-65-299     2   33   46   0.070   0.120        0
  1206  2820-71-365     2   33   46   0.070   0.120        0
  1207  2802-48-334     3   34   46  -0.350   0.180        0
  1208  2802-56-23      3   34   46  -0.350   0.180        0
  1209  2802-61-53      3   34   46  -0.350   0.180        0
  1210  2802-66-20      3   34   46  -0.350   0.180        0
  1211  2795-17-19      2   34   46   0.150   0.090        0
  1212  2795-22-17      2   34   46   0.150   0.090        0
  1213  2795-32-13      2   34   46   0.150   0.090        0
  1214  2795-37-345     2   34   46   0.150   0.090        0
  1215  2795-49-5       2   34   46   0.150   0.090        0
  1216  2795-55-343     2   34   46   0.150   0.090        0
  1217  2795-71-365     2   34   46   0.150   0.090        0
  1218  2722-61-53     -2   36   49  -0.320   0.140        0
  1219  2723-61-53      2   36   49  -0.360   0.110        0
  1220  2723-66-20      2   36   49  -0.360   0.110        0
  1221  2715-48-335     2   36   49   0.140  -0.280        0
  1222  2715-56-23      2   36   49   0.140  -0.280        0
  1223  2715-61-53      2   36   49   0.140  -0.280        0
  1224  2715-66-20      2   36   49   0.140  -0.280        0
  1225  2754-1-365      1   35   48   0.030   0.000        0
  1226  2764-48-334    -2   35   47  -0.320   0.090        0
  1227  2764-56-23     -2   35   47  -0.320   0.090        0
  1228  2764-61-53     -2   35   47  -0.320   0.090        0
  1229  2764-66-20     -2   35   47  -0.320   0.090        0
  1230  2732-48-335     1   35   47   0.410  -0.040        0
  1231  2732-56-20      1   35   47   0.410  -0.040        0
  1232  2739-1-360      1   35   48   0.260   0.200        0
  1233  2736-8-32      -2   35   48   0.180   0.000        0
  1234  2724-48-334    -2   36   48  -0.400  -0.100        0
  1235  2724-56-23     -2   36   48  -0.400  -0.100        0
  1236  2724-61-53     -2   36   48  -0.400  -0.100        0
  1237  2724-66-20     -2   36   48  -0.400  -0.100        0
  1238  2737-42-363    -2   35   45   0.180  -0.340        0
  1239  2717-2-1        2   36   46   0.020  -0.500        0
  1240  2716-8-32       2   36   46   0.020  -0.240        0
  1241  2727-11-121     2   36   42  -0.400  -0.200        0
  1242  2789-12-271     2   34   39   0.250   0.170        0
  1243  2696-1-364      2   36   44   0.360   0.430        0
  1244  2696-6-341      2   36   44   0.360   0.430        0
  1245  2696-11-334     2   36   44   0.360   0.430        0
  1246  2696-16-313     2   36   44   0.360   0.430        0
  1247  2696-22-34      2   36   44   0.360   0.430        0
  1248  2708-48-337     2   36   44   0.170   0.490        0
  1249  2708-56-19      2   36   44   0.170   0.490        0
  1250  2708-66-28      2   36   44   0.170   0.490        0
  1251  2701-32-43     -3   36   46   0.290  -0.370        0
  1252  2701-42-363    -3   36   46   0.290  -0.370        0
  1253  2701-56-19     -3   36   46   0.290  -0.370        0
  1254  2668-42-363     1   38   46  -0.450  -0.340        0
  1255  2668-56-19      2   38   46  -0.450  -0.340        0
  1256  2668-61-52      2   38   46  -0.450  -0.340        0
  1257  2668-66-35      2   38   46  -0.450  -0.340        0
  1258  2681-8-32       1   37   49  -0.020  -0.410        0
  1259  2678-48-335     2   37   49   0.020  -0.410        0
  1260  2678-56-23      2   37   49   0.020  -0.410        0
  1261  2678-61-54      2   37   49   0.020  -0.410        0
  1262  2678-66-20      2   37   49   0.020  -0.410        0
  1263  2690-66-55      2   37   47  -0.330  -0.140        0
  1264  2692-2-1        2   37   47  -0.440  -0.010        0
  1265  2676-43-27     -2   37   51   0.130  -0.430        0
  1266  2676-48-335    -2   37   51   0.130  -0.430        0
  1267  2676-56-23     -2   37   51   0.130  -0.430        0
  1268  2676-61-53     -2   37   51   0.130  -0.430        0
  1269  2676-66-13     -2   37   51   0.130  -0.430        0
  1270  2705-48-335     1   36   50   0.220  -0.440        0
  1271  2705-56-23      1   36   50   0.220  -0.440        0
  1272  2705-61-54      1   36   50   0.220  -0.440        0
  1273  2705-66-18      1   36   50   0.220  -0.440        0
  1274  2707-43-27     -2   36   49   0.210   0.240        0
  1275  2707-48-335    -2   36   49   0.210   0.240        0
  1276  2707-56-23     -2   36   49   0.210   0.240        0
  1277  2707-61-53     -2   36   49   0.210   0.240        0
  1278  2707-66-20     -2   36   49   0.210   0.240        0
  1279  2689-48-335     1   37   49  -0.250  -0.350        0
  1280  2689-56-20      1   37   49  -0.250  -0.350        0
  1281  2656-43-27      1   38   49   0.130   0.140        0
  1282  2656-48-334     1   38   49   0.130   0.140        0
  1283  2656-56-23      1   38   49   0.130   0.140        0
  1284  2656-61-53      1   38   49   0.130   0.140        0
  1285  2656-66-20      1   38   49   0.130   0.140        0
  1286  2674-33-76      2   37   50   0.250   0.400        0
  1287  2973-56-19     -2   27   60   0.460  -0.110        0
  1288  2973-66-32     -2   27   60   0.460  -0.110        0
  1289  2973-71-56     -2   27   60   0.460  -0.110        0
  1290  2977-38-91     -2   27   60   0.460  -0.140        0
  1291  2977-43-6      -2   27   60   0.460  -0.140        0
  1292  2977-48-335    -2   27   60   0.460  -0.140        0
  1293  2977-66-32     -2   27   60   0.460  -0.140        0
  1294  2991-42-362     2   26   55   0.380  -0.010        0
  1295  2991-48-334     2   26   55   0.380  -0.010        0
  1296  2991-56-27      2   26   55   0.380  -0.010        0
  1297  2991-61-59      2   26   55   0.380  -0.010        0
  1298  2991-66-25      2   26   55   0.380  -0.010        0
  1299  2991-71-57      2   26   55   0.380  -0.010        0
  1300  2966-42-362    -2   28   55  -0.200  -0.310        0
  1301  2932-42-362     2   29   51   0.210  -0.330        0
  1302  2932-48-336     2   29   51   0.210  -0.330        0
  1303  2932-56-24      2   29   51   0.210  -0.330        0
  1304  2914-42-357     2   30   52  -0.020   0.490        0
  1305  2914-48-365     2   30   52  -0.020   0.490        0
  1306  2914-55-342     2   30   52  -0.020   0.490        0
  1307  2914-61-38      2   30   52  -0.020   0.490        0
  1308  2914-66-40      2   30   52  -0.020   0.490        0
  1309  2914-71-335     2   30   52  -0.020   0.490        0
  1310  2940-55-342     2   29   53  -0.280  -0.380        0
  1311  2917-42-365     2   30   53  -0.330   0.400        0
  1312  2917-48-336     2   30   53  -0.330   0.400        0
  1313  2917-56-26      2   30   53  -0.330   0.400        0
  1314  2917-61-59      2   30   53  -0.330   0.400        0
  1315  2917-66-27      2   30   53  -0.330   0.400        0
  1316  2917-71-55      2   30   53  -0.330   0.400        0
  1317  2924-42-362     2   29   54   0.370   0.430        0
  1318  2930-36-43      2   30   61  -0.440  -0.430        0
  1319  2930-56-27      2   30   61  -0.440  -0.430        0
  1320  2930-66-33      2   30   61  -0.440  -0.430        0
  1321  2930-71-56      2   30   61  -0.440  -0.430        0
  1322  2929-42-357    -2   29   62   0.290   0.490        0
  1323  2929-48-355    -2   29   62   0.290   0.490        0
  1324  2929-55-342    -2   29   62   0.290   0.490        0
  1325  2929-60-362    -2   29   62   0.290   0.490        0
  1326  2929-66-1      -2   29   62   0.290   0.490        0
  1327  2929-71-335    -2   29   62   0.290   0.490        0
  1328  2888-43-6      -2   31   61  -0.100  -0.230        0
  1329  2888-48-334    -2   31   61  -0.100  -0.230        0
  1330  2888-56-26     -2   31   61  -0.100  -0.230        0
  1331  2888-66-32     -2   31   61  -0.100  -0.230        0
  1332  2888-71-56     -2   31   61  -0.100  -0.230        0
  1333  2856-32-84     -2   32   61   0.050  -0.010        0
  1334  2852-43-5      -2   32   61   0.010   0.320        0
  1335  2852-56-19     -2   32   61   0.010   0.320        0
  1336  2852-66-35     -2   32   61   0.010   0.320        0
  1337  2852-71-56     -2   32   61   0.010   0.320        0
  1338  2869-43-8       2   32   62  -0.410   0.190        0
  1339  2869-48-334     2   32   62  -0.410   0.190        0
  1340  2869-56-24      2   32   62  -0.410   0.190        0
  1341  2899-42-362     2   30   55   0.480   0.280        0
  1342  2899-48-338     2   30   55   0.480   0.280        0
  1343  2903-33-257    -2   30   55   0.360  -0.140        0
  1344  2908-42-357     2   30   54   0.400   0.470        0
  1345  2908-48-356     2   30   54   0.400   0.470        0
  1346  2908-55-342     2   30   54   0.400   0.470        0
  1347  2908-66-26      2   30   54   0.400   0.470        0
  1348  2908-71-335     2   30   54   0.400   0.470        0
  1349  2879-55-342     2   31   53   0.240  -0.220        0
  1350  2879-61-40      2   31   53   0.240  -0.220        0
  1351  2879-66-19      2   31   53   0.240  -0.220        0
  1352  2879-71-335     2   31   53   0.240  -0.220        0
  1353  2878-66-26      2   31   54   0.240   0.470        0
  1354  2878-71-335     2   31   54   0.240   0.470        0
  1355  2897-1-274      2   31   52  -0.450   0.290        0
  1356  2897-6-284      2   31   52  -0.450   0.290        0
  1357  2898-11-34      2   31   52  -0.480   0.190        0
  1358  2898-16-361     2   31   52  -0.480   0.190        0
  1359  2898-37-33      2   31   52  -0.480   0.190        0
  1360  2882-43-32      2   31   51   0.160  -0.400        0
  1361  2882-48-365     2   31   51   0.160  -0.400        0
  1362  2882-55-342     2   31   51   0.160  -0.400        0
  1363  2882-61-38      2   31   51   0.160  -0.400        0
  1364  2882-66-40      2   31   51   0.160  -0.400        0
  1365  2882-71-335     2   31   51   0.160  -0.400        0
  1366  2870-33-274     2   32   51  -0.410  -0.240        0
  1367  2862-33-135     2   32   52  -0.220  -0.420        0
  1368  2824-66-31      2   33   52  -0.110   0.420        0
  1369  2824-71-54      2   33   52  -0.110   0.420        0
  1370  2807-49-5       2   34   54  -0.500   0.340        0
  1371  2807-55-342     2   34   54  -0.500   0.340        0
  1372  2807-71-62      2   34   54  -0.500   0.340        0
  1373  2797-71-62      2   34   56   0.070   0.450        0
  1374  2845-66-35      2   32   58   0.240   0.430        0
  1375  2845-71-62      2   32   58   0.240   0.430        0
  1376  2841-1-274      2   32   57   0.310  -0.290        0
  1377  2841-6-284      2   32   57   0.310  -0.290        0
  1378  2841-11-34      2   32   57   0.310  -0.290        0
  1379  2841-16-361     2   32   57   0.310  -0.290        0
  1380  2841-38-91      2   32   57   0.310  -0.290        0
  1381  2841-39-91      2   32   57   0.310  -0.290        0
  1382  2841-42-364     2   32   57   0.310  -0.290        0
  1383  2841-48-336     2   32   57   0.310  -0.290        0
  1384  2815-56-24      2   33   57   0.270  -0.360        0
  1385  2801-33-52      2   34   57  -0.080  -0.130        0
  1386  2844-43-6       2   32   59   0.280   0.270        0
  1387  2844-48-334     2   32   59   0.280   0.270        0
  1388  2844-56-19      2   32   59   0.280   0.270        0
  1389  2844-66-34      2   32   59   0.280   0.270        0
  1390  2844-71-61      2   32   59   0.280   0.270        0
  1391  2819-56-17      2   33   60   0.120  -0.440        0
  1392  2825-56-19      2   33   60  -0.260   0.470        0
  1393  2825-66-35      2   33   60  -0.260   0.470        0
  1394  2794-33-62      3   34   59   0.150  -0.310        0
  1395  2791-42-356     3   34   59   0.150  -0.340        0
  1396  2791-48-337     3   34   59   0.150  -0.340        0
  1397  2791-61-61      3   34   59   0.150  -0.340        0
  1398  2791-66-26      3   34   59   0.150  -0.340        0
  1399  2806-42-356    -2   34   60  -0.190  -0.240        0
  1400  2806-48-337    -2   34   60  -0.190  -0.240        0
  1401  2840-43-5       2   32   62   0.390   0.000        0
  1402  2840-48-334     2   32   62   0.390   0.000        0
  1403  2840-56-19      2   32   62   0.390   0.000        0
  1404  2840-61-56      2   32   62   0.390   0.000        0
  1405  2840-66-32      2   32   62   0.390   0.000        0
  1406  2827-66-32      2   33   61  -0.300   0.250        0
  1407  2827-71-61      2   33   61  -0.300   0.250        0
  1408  2813-66-26      2   33   61   0.350  -0.230        0
  1409  2813-71-323     2   33   61   0.350  -0.230        0
  1410  2814-42-357    -2   34   61  -0.310  -0.140        0
  1411  2814-55-342    -2   34   61  -0.310  -0.140        0
  1412  2814-61-35     -2   34   61  -0.310  -0.140        0
  1413  2814-66-26     -2   34   61  -0.310  -0.140        0
  1414  2804-42-357    -2   34   61  -0.350  -0.100        0
  1415  2804-55-342    -2   34   61  -0.350  -0.100        0
  1416  2804-61-35     -2   34   61  -0.350  -0.100        0
  1417  2804-66-26     -2   34   61  -0.350  -0.100        0
  1418  2812-42-335     3   33   62   0.350  -0.360        0
  1419  2812-48-355     3   33   62   0.350  -0.360        0
  1420  2812-55-342     3   33   62   0.350  -0.360        0
  1421  2812-61-35      3   33   62   0.350  -0.360        0
  1422  2812-71-323     3   33   62   0.350  -0.360        0
  1423  2765-42-357     2   35   61   0.180  -0.230        0
  1424  2765-48-355     2   35   61   0.180  -0.230        0
  1425  2765-55-342     2   35   61   0.180  -0.230        0
  1426  2765-61-35      2   35   61   0.180  -0.230        0
  1427  2765-66-26      2   35   61   0.180  -0.230        0
  1428  2765-71-323     2   35   61   0.180  -0.230        0
  1429  2728-8-69       2   36   59  -0.430   0.110        0
  1430  2719-42-357     2   36   59  -0.090  -0.020        0
  1431  2719-48-356     2   36   59  -0.090  -0.020        0
  1432  2719-55-343     2   36   59  -0.090  -0.020        0
  1433  2726-42-357     2   36   60  -0.390   0.440        0
  1434  2726-48-355     2   36   60  -0.390   0.440        0
  1435  2726-55-342     2   36   60  -0.390   0.440        0
  1436  2726-61-35      2   36   60  -0.390   0.440        0
  1437  2726-66-26      2   36   60  -0.390   0.440        0
  1438  2726-71-323     2   36   60  -0.390   0.440        0
  1439  2784-71-62      2   34   57   0.300  -0.490        0
  1440  2730-56-24      2   35   58   0.410  -0.350        0
  1441  2730-61-54      2   35   58   0.410  -0.350        0
  1442  2730-66-18      2   35   58   0.410  -0.350        0
  1443  2781-16-361     2   34   56   0.340   0.380        0
  1444  2782-17-7       2   34   56   0.300   0.020        0
  1445  2782-71-62      2   34   56   0.300   0.020        0
  1446  2762-48-338     2   35   56  -0.270   0.450        0
  1447  2785-56-23      2   34   56   0.420  -0.010        0
  1448  2785-66-19      2   34   56   0.420  -0.010        0
  1449  2757-56-24      2   35   56  -0.080   0.190        0
  1450  2757-66-19      2   35   56  -0.080   0.190        0
  1451  2763-56-24      2   35   55  -0.200   0.340        0
  1452  2763-66-19      2   35   55  -0.200   0.340        0
  1453  2729-56-24      2   36   55  -0.390   0.340        0
  1454  2729-66-18      2   36   55  -0.390   0.340        0
  1455  2720-16-298     2   36   56  -0.160  -0.140        0
  1456  2720-22-31      2   36   56  -0.160  -0.140        0
  1457  2706-66-35      2   36   56   0.140   0.450        0
  1458  2710-56-24      2   36   56   0.140   0.450        0
  1459  2755-56-23      2   35   53  -0.160  -0.220        0
  1460  2755-61-54      2   35   53  -0.160  -0.220        0
  1461  2755-66-18      2   35   53  -0.160  -0.220        0
  1462  2735-1-365      2   35   53   0.340  -0.390        0
  1463  2778-33-182     2   34   51   0.420  -0.200        0
  1464  2759-34-121     2   35   51  -0.080   0.250        0
  1465  2738-66-26      2   35   51   0.260   0.020        0
  1466  2738-71-348     2   35   51   0.260   0.020        0
  1467  2733-10-280     2   36   52  -0.430   0.190        0
  1468  2733-22-19      2   36   52  -0.430   0.190        0
  1469  2733-42-362     2   36   52  -0.430   0.190        0
  1470  2733-48-362     2   36   52  -0.430   0.190        0
  1471  2733-55-342     2   36   52  -0.430   0.190        0
  1472  2733-61-38      2   36   52  -0.430   0.190        0
  1473  2733-66-40      2   36   52  -0.430   0.190        0
  1474  2733-71-348     2   36   52  -0.430   0.190        0
  1475  2698-49-8       2   36   51   0.330   0.480        0
  1476  2698-55-342     2   36   51   0.330   0.480        0
  1477  2698-61-10      2   36   51   0.330   0.480        0
  1478  2698-71-348     2   36   51   0.330   0.480        0
  1479  2665-42-362    -2   38   51  -0.020  -0.170        0
  1480  2665-48-362    -2   38   51  -0.020  -0.170        0
  1481  2665-55-342    -2   38   51  -0.020  -0.170        0
  1482  2665-61-4      -2   38   51  -0.020  -0.170        0
  1483  2665-66-26     -2   38   51  -0.020  -0.170        0
  1484  2665-71-348    -2   38   51  -0.020  -0.170        0
  1485  2664-1-360      1   38   51  -0.180   0.380        0
  1486  2664-6-341      1   38   51  -0.180   0.380        0
  1487  2662-42-362     2   38   52   0.050   0.000        0
  1488  2662-48-361     2   38   52   0.050   0.000        0
  1489  2662-55-342     2   38   52   0.050   0.000        0
  1490  2662-71-348     2   38   52   0.050   0.000        0
  1491  2659-55-342     2   38   52   0.050   0.000        0
  1492  2659-61-11      2   38   52   0.050   0.000        0
  1493  2659-66-26      2   38   52   0.050   0.000        0
  1494  2659-71-348     2   38   52   0.050   0.000        0
  1495  2658-1-92       1   38   52   0.050   0.390        0
  1496  2742-17-3       2   36   54   0.370   0.500        0
  1497  2742-22-1       2   36   54   0.370   0.500        0
  1498  2742-38-91      2   36   54   0.370   0.500        0
  1499  2742-56-24      2   36   54   0.370   0.500        0
  1500  2742-61-54      2   36   54   0.370   0.500        0
  1501  2742-66-31      2   36   54   0.370   0.500        0
  1502  2742-71-62      2   36   54   0.370   0.500        0
  1503  2683-42-362     2   37   53   0.100  -0.290        0
  1504  2683-48-362     2   37   53   0.100  -0.290        0
  1505  2683-55-342     2   37   53   0.100  -0.290        0
  1506  2683-61-32      2   37   53   0.100  -0.290        0
  1507  2683-66-40      2   37   53   0.100  -0.290        0
  1508  2686-1-274      2   37   53  -0.130   0.460        0
  1509  2686-6-283      2   37   53  -0.130   0.460        0
  1510  2686-10-280     2   37   53  -0.130   0.460        0
  1511  2666-1-274      1   38   52  -0.440   0.130        0
  1512  2666-6-283      1   38   52  -0.440   0.130        0
  1513  2670-17-3       2   37   54   0.400   0.500        0
  1514  2670-22-31      2   37   54   0.400   0.500        0
  1515  2670-31-351     2   37   54   0.400   0.500        0
  1516  2670-36-50      2   37   54   0.400   0.500        0
  1517  2670-42-352     2   37   54   0.400   0.500        0
  1518  2670-56-24      2   37   54   0.400   0.500        0
  1519  2670-61-54      2   37   54   0.400   0.500        0
  1520  2670-66-33      2   37   54   0.400   0.500        0
  1521  2670-71-62      2   37   54   0.400   0.500        0
  1522  2703-36-244     2   36   60   0.220   0.470        0
  1523  2703-48-355     2   36   60   0.220   0.470        0
  1524  2703-55-343     2   36   60   0.220   0.470        0
  1525  2703-61-35      2   36   60   0.220   0.470        0
  1526  2703-66-19      2   36   60   0.220   0.470        0
  1527  2703-71-323     2   36   60   0.220   0.470        0
  1528  2680-71-61      2   37   60  -0.020  -0.230        0
  1529  2704-42-335     2   36   59   0.220   0.140        0
  1530  2704-48-356     2   36   59   0.220   0.140        0
  1531  2672-42-356     2   38   59  -0.330  -0.380        0
  1532  2672-66-33      2   38   59  -0.330  -0.380        0
  1533  2672-71-63      2   38   59  -0.330  -0.380        0
  1534  2657-42-356     2   38   60   0.170  -0.080        0
  1535  2657-66-33      2   38   60   0.170  -0.080        0
  1536  2685-42-356     2   37   61   0.170  -0.490        0
  1537  2685-48-355     2   37   61   0.170  -0.490        0
  1538  2685-55-343     2   37   61   0.170  -0.490        0
  1539  2685-61-35      2   37   61   0.170  -0.490        0
  1540  2685-66-26      2   37   61   0.170  -0.490        0
  1541  2685-71-323     2   37   61   0.170  -0.490        0
  1542  2983-16-361     2   27   66  -0.270   0.480        0
  1543  2983-22-31      2   27   66  -0.270   0.480        0
  1544  2983-27-11      2   27   66  -0.270   0.480        0
  1545  2980-43-8       2   27   66   0.030  -0.370        0
  1546  2980-48-334     2   27   66   0.030  -0.370        0
  1547  2980-56-24      2   27   66   0.030  -0.370        0
  1548  2990-16-361     2   26   64   0.420   0.500        0
  1549  2990-48-337     2   26   64   0.420   0.500        0
  1550  2990-56-24      2   26   64   0.420   0.500        0
  1551  2956-2-85       2   28   65   0.260  -0.110        0
  1552  2956-6-284      2   28   65   0.260  -0.110        0
  1553  2956-12-261     2   28   65   0.260  -0.110        0
  1554  2956-16-133     2   28   65   0.260  -0.110        0
  1555  2956-26-124     2   28   65   0.260  -0.110        0
  1556  2956-37-34      2   28   65   0.260  -0.110        0
  1557  2956-43-5       2   28   65   0.260  -0.110        0
  1558  2956-48-334     2   28   65   0.260  -0.110        0
  1559  2956-56-27      2   28   65   0.260  -0.110        0
  1560  2956-66-35      2   28   65   0.260  -0.110        0
  1561  2956-71-12      2   28   65   0.260  -0.110        0
  1562  2956-71-365     2   28   65   0.260  -0.110        0
  1563  2931-11-62      2   29   63   0.210   0.430        0
  1564  2931-16-361     2   29   63   0.210   0.430        0
  1565  2931-22-31      2   29   63   0.210   0.430        0
  1566  2635-56-25      3   38   20   0.500   0.290        0
  1567  2595-16-355     3   40   19   0.440   0.310        0
  1568  2595-48-349     3   40   19   0.440   0.310        0
  1569  2595-55-355     3   40   19   0.440   0.310        0
  1570  2595-61-4       3   40   19   0.440   0.310        0
  1571  2595-66-47      3   40   19   0.440   0.310        0
  1572  2595-71-5       3   40   19   0.440   0.310        0
  1573  2595-71-365     3   40   19   0.440   0.310        0
  1574  2594-48-350    -2   40   21   0.410  -0.300        0
  1575  2594-55-355    -2   40   21   0.410  -0.300        0
  1576  2594-66-47     -2   40   21   0.410  -0.300        0
  1577  2594-71-5      -2   40   21   0.410  -0.300        0
  1578  2594-71-365    -2   40   21   0.410  -0.300        0
  1579  2599-66-47      2   40   20   0.260   0.310        0
  1580  2599-71-5       2   40   20   0.260   0.310        0
  1581  2599-71-365     2   40   20   0.260   0.310        0
  1582  2596-42-351    -2   40   18   0.400   0.360        0
  1583  2596-48-349    -2   40   18   0.400   0.360        0
  1584  2596-55-355    -2   40   18   0.400   0.360        0
  1585  2596-61-4      -2   40   18   0.400   0.360        0
  1586  2596-66-34     -2   40   18   0.400   0.360        0
  1587  2596-71-5       3   40   18   0.400   0.360        0
  1588  2596-71-365     3   40   18   0.400   0.360        0
  1589  2591-56-3       3   40   18   0.330   0.330        0
  1590  2591-61-4       3   40   18   0.330   0.330        0
  1591  2591-66-34      3   40   18   0.330   0.330        0
  1592  2591-71-5       3   40   18   0.330   0.330        0
  1593  2591-71-365     3   40   18   0.330   0.330        0
  1594  2588-42-351     3   40   16   0.470   0.120        0
  1595  2588-48-349     3   40   16   0.470   0.120        0
  1596  2588-55-355     3   40   16   0.470   0.120        0
  1597  2588-61-4       3   40   16   0.470   0.120        0
  1598  2588-66-47      3   40   16   0.470   0.120        0
  1599  2588-71-4       3   40   16   0.470   0.120        0
  1600  2588-71-365     3   40   16   0.470   0.120        0
  1601  2564-12-171     3   41   18   0.090   0.390        0
  1602  2564-16-355     3   41   18   0.090   0.390        0
  1603  2564-22-37      3   41   18   0.090   0.390        0
  1604  2530-42-351    -2   42   18   0.350   0.260        0
  1605  2530-48-349    -2   42   18   0.350   0.260        0
  1606  2530-55-355    -2   42   18   0.350   0.260        0
  1607  2530-61-6      -2   42   18   0.350   0.260        0
  1608  2530-66-47     -2   42   18   0.350   0.260        0
  1609  2530-71-5       3   42   18   0.350   0.260        0
  1610  2530-71-365     3   42   18   0.350   0.260        0
  1611  2529-17-6       3   42   20   0.440   0.370        0
  1612  2529-56-24      3   42   20   0.440   0.370        0
  1613  2529-61-52      3   42   20   0.440   0.370        0
  1614  2529-66-19      3   42   20   0.440   0.370        0
  1615  2587-1-105      2   40   21   0.490  -0.360        0
  1616  2587-7-3        2   40   21   0.490  -0.360        0
  1617  2449-32-85      2   44   25   0.360   0.310        0
  1618  2492-48-349    -2   43   22   0.400   0.420        0
  1619  2492-61-4      -2   43   22   0.400   0.420        0
  1620  2492-66-39     -2   43   22   0.400   0.420        0
  1621  2492-71-6       3   43   22   0.400   0.420        0
  1622  2492-71-365     3   43   22   0.400   0.420        0
  1623  2491-56-3       3   43   23   0.400  -0.260        0
  1624  2491-61-6       3   43   23   0.400  -0.260        0
  1625  2491-66-39      3   43   23   0.400  -0.260        0
  1626  2491-71-6       3   43   23   0.400  -0.260        0
  1627  2491-71-365     3   43   23   0.400  -0.260        0
  1628  2450-48-349    -2   44   23   0.430   0.160        0
  1629  2450-55-354    -2   44   23   0.430   0.160        0
  1630  2450-61-4      -2   44   23   0.430   0.160        0
  1631  2450-66-39     -2   44   23   0.430   0.160        0
  1632  2450-71-6       2   44   23   0.430   0.160        0
  1633  2450-71-365     2   44   23   0.430   0.160        0
  1634  2451-48-349    -2   44   22   0.430   0.380        0
  1635  2451-55-355    -2   44   22   0.430   0.380        0
  1636  2451-61-4      -2   44   22   0.430   0.380        0
  1637  2451-66-27     -2   44   22   0.430   0.380        0
  1638  2451-71-6       3   44   22   0.430   0.380        0
  1639  2451-71-365     3   44   22   0.430   0.380        0
  1640  2442-48-348     3   44   20   0.430  -0.220        0
  1641  2442-56-23      3   44   20   0.430  -0.220        0
  1642  2442-60-319     3   44   20   0.430  -0.220        0
  1643  2442-66-26      3   44   20   0.430  -0.220        0
  1644  2442-71-11      3   44   20   0.430  -0.220        0
  1645  2452-12-171     3   44   20   0.430   0.330        0
  1646  2452-16-314     3   44   20   0.430   0.330        0
  1647  2452-32-85      3   44   20   0.430   0.330        0
  1648  2452-35-53      3   44   20   0.430   0.330        0
  1649  2390-42-351     3   45   17   0.260  -0.050        0
  1650  2390-48-349     3   45   17   0.260  -0.050        0
  1651  2390-55-355     3   45   17   0.260  -0.050        0
  1652  2390-66-47      3   45   17   0.260  -0.050        0
  1653  2390-71-6       3   45   17   0.260  -0.050        0
  1654  2390-71-365     3   45   17   0.260  -0.050        0
  1655  2303-42-351    -2   46   17   0.370  -0.050        0
  1656  2303-48-349    -2   46   17   0.370  -0.050        0
  1657  2303-55-355    -2   46   17   0.370  -0.050        0
  1658  2303-61-4      -2   46   17   0.370  -0.050        0
  1659  2303-66-47     -2   46   17   0.370  -0.050        0
  1660  2303-71-6       3   46   17   0.370  -0.050        0
  1661  2303-71-365     3   46   17   0.370  -0.050        0
  1662  2417-56-24      3   45   20   0.000  -0.190        0
  1663  2417-61-54      3   45   20   0.000  -0.190        0
  1664  2411-56-24      3   45   20   0.040  -0.190        0
  1665  2411-61-54      3   45   20   0.040  -0.190        0
  1666  2259-42-352     3   46   21   0.490  -0.280        0
  1667  2259-56-3       3   46   21   0.490  -0.280        0
  1668  2296-22-38     -2   46   21   0.420   0.370        0
  1669  2296-42-352    -2   46   21   0.420   0.370        0
  1670  2296-48-350    -2   46   21   0.420   0.370        0
  1671  2296-55-354    -2   46   21   0.420   0.370        0
  1672  2296-61-6      -2   46   21   0.420   0.370        0
  1673  2296-66-39     -2   46   21   0.420   0.370        0
  1674  2296-71-6       3   46   21   0.420   0.370        0
  1675  2296-71-365     3   46   21   0.420   0.370        0
  1676  2302-48-350    -2   46   22   0.460   0.380        0
  1677  2302-55-354    -2   46   22   0.460   0.380        0
  1678  2302-61-6      -2   46   22   0.460   0.380        0
  1679  2302-66-32     -2   46   22   0.460   0.380        0
  1680  2302-71-6       3   46   22   0.460   0.380        0
  1681  2302-71-365     3   46   22   0.460   0.380        0
  1682  2301-37-33     -2   46   23   0.460   0.350        0
  1683  2301-42-352    -2   46   23   0.460   0.350        0
  1684  2301-48-349    -2   46   23   0.460   0.350        0
  1685  2301-55-354    -2   46   23   0.460   0.350        0
  1686  2301-66-1      -2   46   23   0.460   0.350        0
  1687  2301-71-6      -2   46   23   0.460   0.350        0
  1688  2301-71-365    -2   46   23   0.460   0.350        0
  1689  2440-55-354     3   44   25   0.480   0.370        0
  1690  2440-61-6       3   44   25   0.480   0.370        0
  1691  2440-65-342     3   44   25   0.480   0.370        0
  1692  2440-71-6       3   44   25   0.480   0.370        0
  1693  2440-71-365     3   44   25   0.480   0.370        0
  1694  2300-16-354    -2   46   25   0.280   0.370        0
  1695  2300-48-350    -2   46   25   0.280   0.370        0
  1696  2300-55-355    -2   46   25   0.280   0.370        0
  1697  2300-61-6      -2   46   25   0.280   0.370        0
  1698  2300-65-341    -2   46   25   0.280   0.370        0
  1699  2300-71-7      -2   46   25   0.280   0.370        0
  1700  2300-71-365     2   46   25   0.280   0.370        0
  1701  2220-12-311    -2   47   26   0.390  -0.250        0
  1702  2220-16-356    -2   47   26   0.390  -0.250        0
  1703  2220-48-350    -2   47   26   0.390  -0.250        0
  1704  2220-55-354    -2   47   26   0.390  -0.250        0
  1705  2220-61-7      -2   47   26   0.390  -0.250        0
  1706  2220-66-39     -2   47   26   0.390  -0.250        0
  1707  2220-71-7      -2   47   26   0.390  -0.250        0
  1708  2220-71-365     3   47   26   0.390  -0.250        0
  1709  2222-55-354    -2   47   25   0.390   0.070        0
  1710  2222-61-6      -2   47   25   0.390   0.070        0
  1711  2222-65-341    -2   47   25   0.390   0.070        0
  1712  2222-71-7      -2   47   25   0.390   0.070        0
  1713  2222-71-365     3   47   25   0.390   0.070        0
  1714  2096-48-350    -2   48   25   0.310   0.360        0
  1715  2096-55-354    -2   48   25   0.310   0.360        0
  1716  2096-61-6      -2   48   25   0.310   0.360        0
  1717  2096-65-343    -2   48   25   0.310   0.360        0
  1718  2096-71-7      -2   48   25   0.310   0.360        0
  1719  2096-71-365     3   48   25   0.310   0.360        0
  1720  2089-12-171    -2   48   23   0.410  -0.170        0
  1721  2089-42-352    -2   48   23   0.410  -0.170        0
  1722  2089-48-350    -2   48   23   0.410  -0.170        0
  1723  2089-55-354    -2   48   23   0.410  -0.170        0
  1724  2089-61-6      -2   48   23   0.410  -0.170        0
  1725  2089-66-55     -2   48   23   0.410  -0.170        0
  1726  2089-71-6       3   48   23   0.410  -0.170        0
  1727  2089-71-365     3   48   23   0.410  -0.170        0
  1728  2088-42-352    -2   48   24   0.420  -0.200        0
  1729  2088-48-350    -2   48   24   0.420  -0.200        0
  1730  2088-55-354    -2   48   24   0.420  -0.200        0
  1731  2088-61-6      -2   48   24   0.420  -0.200        0
  1732  2088-66-48     -2   48   24   0.420  -0.200        0
  1733  2088-71-6       3   48   24   0.420  -0.200        0
  1734  2088-71-365     3   48   24   0.420  -0.200        0
  1735  2620-61-53      3   40   33  -0.480  -0.430        0
  1736  2620-66-28      3   40   33  -0.480  -0.430        0
  1737  2630-1-86       3   39   33  -0.280  -0.500        0
  1738  2615-21-353     2   40   32  -0.360   0.240        0
  1739  2615-27-20      2   40   32  -0.360   0.240        0
  1740  2615-36-64      2   40   32  -0.360   0.240        0
  1741  2615-42-350     2   40   32  -0.360   0.240        0
  1742  2618-56-23      2   40   32  -0.440   0.310        0
  1743  2618-61-53      2   40   32  -0.440   0.310        0
  1744  2618-66-28      2   40   32  -0.440   0.310        0
  1745  2616-1-109      2   40   32  -0.370  -0.080        0
  1746  2616-7-10       3   40   32  -0.370  -0.080        0
  1747  2616-10-319     3   40   32  -0.370  -0.080        0
  1748  2607-56-23      3   40   32  -0.020  -0.440        0
  1749  2607-61-53      3   40   32  -0.020  -0.440        0
  1750  2607-66-28      3   40   32  -0.020  -0.440        0
  1751  2578-2-305      2   41   28  -0.300   0.180        0
  1752  2582-1-105      2   41   30  -0.370   0.260        0
  1753  2577-56-23      3   41   30  -0.300   0.060        0
  1754  2577-61-53      3   41   30  -0.300   0.060        0
  1755  2577-66-28      3   41   30  -0.300   0.060        0
  1756  2573-56-27      3   41   30  -0.140   0.350        0
  1757  2553-33-188     3   41   29   0.460  -0.400        0
  1758  2553-56-27      3   41   29   0.460  -0.400        0
  1759  2574-1-107      2   41   32  -0.220   0.430        0
  1760  2580-1-109      3   41   33  -0.330  -0.270        0
  1761  2571-21-354     3   41   33  -0.100  -0.370        0
  1762  2498-37-34      2   43   32   0.270   0.170        0
  1763  2498-42-350     2   43   32   0.270   0.170        0
  1764  2519-56-23      3   43   31  -0.340  -0.100        0
  1765  2507-48-300     3   43   28  -0.010   0.460        0
  1766  2507-55-318     3   43   28  -0.010   0.460        0
  1767  2507-60-313     3   43   28  -0.010   0.460        0
  1768  2507-65-364     3   43   28  -0.010   0.460        0
  1769  2507-71-350     3   43   28  -0.010   0.460        0
  1770  2508-48-300     3   43   28  -0.010   0.460        0
  1771  2508-55-318     3   43   28  -0.010   0.460        0
  1772  2508-60-313     3   43   28  -0.010   0.460        0
  1773  2508-65-364     3   43   28  -0.010   0.460        0
  1774  2508-71-350     3   43   28  -0.010   0.460        0
  1775  2448-56-25      2   44   28   0.410   0.170        0
  1776  2448-61-52      2   44   28   0.410   0.170        0
  1777  2448-66-20      2   44   28   0.410   0.170        0
  1778  2311-56-23      3   46   29   0.400   0.430        0
  1779  2311-61-53      3   46   29   0.400   0.430        0
  1780  2311-66-28      3   46   29   0.400   0.430        0
  1781  2084-2-305      2   48   29   0.470  -0.350        0
  1782  2099-42-352    -2   48   27   0.390  -0.470        0
  1783  2099-48-365    -2   48   27   0.390  -0.470        0
  1784  2099-55-354    -2   48   27   0.390  -0.470        0
  1785  2099-61-7      -2   48   27   0.390  -0.470        0
  1786  2099-65-344    -2   48   27   0.390  -0.470        0
  1787  2099-71-365    -2   48   27   0.390  -0.470        0
  1788  2087-71-365     2   48   27   0.420  -0.470        0
  1789  2110-71-365     3   48   28   0.270  -0.430        0
  1790  2040-65-364     2   49   28   0.000  -0.140        0
  1791  2040-71-365     2   49   28   0.000  -0.140        0
  1792  2034-65-364     3   49   28   0.040  -0.100        0
  1793  2034-71-12      3   49   28   0.040  -0.100        0
  1794  2034-71-365     3   49   28   0.040  -0.100        0
  1795  2009-71-8       3   49   28   0.380  -0.460        0
  1796  2009-71-365     3   49   28   0.380  -0.460        0
  1797  2008-71-8       3   49   26   0.420   0.460        0
  1798  2008-71-365     3   49   26   0.420   0.460        0
  1799  1923-16-315    -2   50   26   0.410   0.400        0
  1800  1923-22-38     -2   50   26   0.410   0.400        0
  1801  1923-27-24     -2   50   26   0.410   0.400        0
  1802  1923-32-85     -2   50   26   0.410   0.400        0
  1803  1923-36-1      -2   50   26   0.410   0.400        0
  1804  1923-42-352    -2   50   26   0.410   0.400        0
  1805  1923-48-348    -2   50   26   0.410   0.400        0
  1806  1923-55-354    -2   50   26   0.410   0.400        0
  1807  1923-60-323    -2   50   26   0.410   0.400        0
  1808  1923-65-343    -2   50   26   0.410   0.400        0
  1809  1923-71-8      -2   50   26   0.410   0.400        0
  1810  1923-71-365    -2   50   26   0.410   0.400        0
  1811  1914-55-354     2   50   26   0.410   0.460        0
  1812  1914-61-7       2   50   26   0.410   0.460        0
  1813  1914-71-8       2   50   26   0.410   0.460        0
  1814  1919-71-8       3   50   26   0.370   0.430        0
  1815  1914-71-365     2   50   26   0.410   0.460        0
  1816  1919-71-365     3   50   26   0.370   0.430        0
  1817  1938-65-364     2   50   27   0.110   0.180        0
  1818  1960-65-364     2   50   27  -0.010   0.020        0
  1819  1922-12-171    -2   50   27   0.340   0.340        0
  1820  1922-42-352    -2   50   27   0.340   0.340        0
  1821  1922-48-349    -2   50   27   0.340   0.340        0
  1822  1922-55-354    -2   50   27   0.340   0.340        0
  1823  1922-61-7      -2   50   27   0.340   0.340        0
  1824  1922-71-8      -2   50   27   0.340   0.340        0
  1825  1922-71-365     2   50   27   0.340   0.340        0
  1826  1918-10-108     2   50   27   0.300   0.410        0
  1827  1918-66-32      2   50   27   0.300   0.410        0
  1828  1918-71-8       2   50   27   0.300   0.410        0
  1829  1918-71-365     2   50   27   0.300   0.410        0
  1830  1959-71-8       3   50   28   0.000  -0.170        0
  1831  1959-71-365     3   50   28   0.000  -0.170        0
  1832  1944-71-365     2   50   28   0.070  -0.200        0
  1833  1988-35-4      -2   50   32  -0.380   0.320        0
  1834  1908-56-18      2   50   32   0.430   0.480        0
  1835  1908-66-18      2   50   32   0.430   0.480        0
  1836  2638-33-46      2   38   50   0.170  -0.150        0
  1837  2648-35-95     -2   38   49   0.280  -0.030        0
  1838  2627-48-336    -2   39   50  -0.070  -0.410        0
  1839  2619-2-1       -2   40   50  -0.460   0.270        0
  1840  2642-12-43      1   38   48   0.320   0.290        0
  1841  2649-17-23     -2   38   48   0.280   0.360        0
  1842  2649-22-20     -2   38   48   0.280   0.360        0
  1843  2649-42-363    -2   38   48   0.280   0.360        0
  1844  2649-48-336    -2   38   48   0.280   0.360        0
  1845  2649-56-20     -2   38   48   0.280   0.360        0
  1846  2649-61-55     -2   38   48   0.280   0.360        0
  1847  2628-1-365      1   39   48  -0.110  -0.160        0
  1848  2650-71-350     2   38   47   0.200   0.120        0
  1849  2655-42-362     2   38   47   0.160   0.120        0
  1850  2655-48-362     2   38   47   0.160   0.120        0
  1851  2655-55-343     2   38   47   0.160   0.120        0
  1852  2655-61-40      2   38   47   0.160   0.120        0
  1853  2655-66-55      2   38   47   0.160   0.120        0
  1854  2655-71-350     2   38   47   0.160   0.120        0
  1855  2604-61-55      1   40   48   0.120  -0.460        0
  1856  2626-22-20     -3   39   49   0.200  -0.380        0
  1857  2626-32-42     -3   39   49   0.200  -0.380        0
  1858  2623-8-279      1   39   48   0.280   0.260        0
  1859  2623-12-32      1   39   48   0.280   0.260        0
  1860  2623-17-22      1   39   48   0.280   0.260        0
  1861  2623-22-1       1   39   48   0.280   0.260        0
  1862  2623-27-34      1   39   48   0.280   0.260        0
  1863  2608-12-43      2   40   48  -0.040   0.290        0
  1864  2608-17-23      2   40   48  -0.040   0.290        0
  1865  2608-22-20      2   40   48  -0.040   0.290        0
  1866  2608-32-42      2   40   48  -0.040   0.290        0
  1867  2629-3-217      1   39   46  -0.110  -0.110        0
  1868  2606-56-26      3   40   46   0.120   0.440        0
  1869  2606-61-55      3   40   46   0.120   0.440        0
  1870  2606-66-20      3   40   46   0.120   0.440        0
  1871  2592-12-43     -2   40   50   0.390   0.340        0
  1872  2592-17-23     -2   40   50   0.390   0.340        0
  1873  2592-22-23     -2   40   50   0.390   0.340        0
  1874  2592-42-364    -2   40   50   0.390   0.340        0
  1875  2592-48-336    -2   40   50   0.390   0.340        0
  1876  2592-56-20     -2   40   50   0.390   0.340        0
  1877  2592-61-55     -2   40   50   0.390   0.340        0
  1878  2603-27-15     -2   40   50   0.160   0.010        0
  1879  2603-42-362    -2   40   50   0.160   0.010        0
  1880  2603-48-336    -2   40   50   0.160   0.010        0
  1881  2603-55-343    -2   40   50   0.160   0.010        0
  1882  2603-61-40     -2   40   50   0.160   0.010        0
  1883  2603-65-343    -2   40   50   0.160   0.010        0
  1884  2603-71-47     -2   40   50   0.160   0.010        0
  1885  2603-71-350    -2   40   50   0.160   0.010        0
  1886  2593-1-365      1   40   49   0.390   0.390        0
  1887  2558-22-23     -2   41   50   0.300  -0.440        0
  1888  2558-27-35     -2   41   50   0.300  -0.440        0
  1889  2558-42-362    -2   41   50   0.300  -0.440        0
  1890  2558-48-362    -2   41   50   0.300  -0.440        0
  1891  2558-55-343    -2   41   50   0.300  -0.440        0
  1892  2558-61-40     -2   41   50   0.300  -0.440        0
  1893  2651-42-356     2   38   61   0.250  -0.490        0
  1894  2632-66-33      2   39   61  -0.370  -0.400        0
  1895  2632-71-63      2   39   61  -0.370  -0.400        0
  1896  2644-48-345     2   38   60   0.280   0.250        0
  1897  2644-71-63      2   38   60   0.280   0.250        0
  1898  2645-42-356     2   38   59   0.320  -0.380        0
  1899  2645-48-345     2   38   59   0.320  -0.380        0
  1900  2645-66-33      2   38   59   0.320  -0.380        0
  1901  2645-71-63      2   38   59   0.320  -0.380        0
  1902  2624-71-63      2   39   59   0.240   0.110        0
  1903  2609-42-365    -2   40   58  -0.110  -0.190        0
  1904  2609-48-338    -2   40   58  -0.110  -0.190        0
  1905  2609-56-24     -2   40   58  -0.110  -0.190        0
  1906  2609-61-54     -2   40   58  -0.110  -0.190        0
  1907  2609-66-26     -2   40   58  -0.110  -0.190        0
  1908  2609-71-62     -2   40   58  -0.110  -0.190        0
  1909  2631-56-24      1   39   53  -0.180  -0.390        0
  1910  2631-61-54      1   39   53  -0.180  -0.390        0
  1911  2631-66-33      1   39   53  -0.180  -0.390        0
  1912  2652-17-24     -2   38   53   0.240  -0.480        0
  1913  2652-22-19     -2   38   53   0.240  -0.480        0
  1914  2652-27-33     -2   38   53   0.240  -0.480        0
  1915  2652-42-362    -2   38   53   0.240  -0.480        0
  1916  2634-66-19      1   39   51  -0.410   0.250        0
  1917  2633-56-23      1   39   52  -0.410  -0.490        0
  1918  2647-1-51       1   38   51   0.280  -0.270        0
  1919  2613-56-26     -2   40   52  -0.070  -0.430        0
  1920  2622-11-34     -2   39   52   0.320   0.480        0
  1921  2622-17-3      -2   39   52   0.320   0.480        0
  1922  2622-22-25     -2   39   52   0.320   0.480        0
  1923  2622-27-11     -2   39   52   0.320   0.480        0
  1924  2622-32-46     -2   39   52   0.320   0.480        0
  1925  2625-42-362    -2   39   53   0.240  -0.490        0
  1926  2605-42-362     2   40   52   0.000   0.480        0
  1927  2605-48-362     2   40   52   0.000   0.480        0
  1928  2605-55-343     2   40   52   0.000   0.480        0
  1929  2605-61-38      2   40   52   0.000   0.480        0
  1930  2605-66-49      2   40   52   0.000   0.480        0
  1931  2605-71-40      2   40   52   0.000   0.480        0
  1932  2605-71-350     2   40   52   0.000   0.480        0
  1933  2570-8-37       1   40   52   0.040   0.220        0
  1934  2570-12-46      1   40   52   0.040   0.220        0
  1935  2570-17-24      1   40   52   0.040   0.220        0
  1936  2570-22-25      1   40   52   0.040   0.220        0
  1937  2560-22-25     -3   41   51   0.270   0.470        0
  1938  2560-27-34     -3   41   51   0.270   0.470        0
  1939  2560-32-36     -3   41   51   0.270   0.470        0
  1940  2560-42-363    -3   41   51   0.270   0.470        0
  1941  2545-56-20      2   42   51  -0.040   0.380        0
  1942  2544-1-50       1   42   52  -0.010   0.250        0
  1943  2544-6-39       1   42   52  -0.010   0.250        0
  1944  2576-16-25      1   41   55  -0.270  -0.440        0
  1945  2576-22-25      1   41   55  -0.270  -0.440        0
  1946  2576-26-28      1   41   55  -0.270  -0.440        0
  1947  2581-66-26      2   41   55  -0.340  -0.440        0
  1948  2581-71-62      2   41   55  -0.340  -0.440        0
  1949  2600-17-24     -2   40   54   0.230  -0.450        0
  1950  2600-22-25     -2   40   54   0.230  -0.450        0
  1951  2600-27-54     -2   40   54   0.230  -0.450        0
  1952  2600-32-36     -2   40   54   0.230  -0.450        0
  1953  2600-38-32     -2   40   54   0.230  -0.450        0
  1954  2600-39-32     -2   40   54   0.230  -0.450        0
  1955  2600-48-362    -2   40   54   0.230  -0.450        0
  1956  2600-55-343    -2   40   54   0.230  -0.450        0
  1957  2600-61-40     -2   40   54   0.230  -0.450        0
  1958  2600-66-49     -2   40   54   0.230  -0.450        0
  1959  2600-71-40     -2   40   54   0.230  -0.450        0
  1960  2600-71-350    -2   40   54   0.230  -0.450        0
  1961  2566-66-26      2   41   53   0.110   0.360        0
  1962  2562-48-335    -2   41   53   0.150   0.260        0
  1963  2562-56-25     -2   41   53   0.150   0.260        0
  1964  2543-1-2        1   42   53   0.030  -0.290        0
  1965  2546-7-316      1   42   54   0.070  -0.410        0
  1966  2546-12-46      1   42   54   0.070  -0.410        0
  1967  2546-17-33      1   42   54   0.070  -0.410        0
  1968  2546-22-25      1   42   54   0.070  -0.410        0
  1969  2546-27-11      1   42   54   0.070  -0.410        0
  1970  2546-32-46      1   42   54   0.070  -0.410        0
  1971  2546-38-46      1   42   54   0.070  -0.410        0
  1972  2546-39-32      1   42   54   0.070  -0.410        0
  1973  2546-56-25      1   42   54   0.070  -0.410        0
  1974  2541-17-3       2   42   54   0.190  -0.380        0
  1975  2541-27-11      2   42   54   0.190  -0.380        0
  1976  2548-42-362     2   42   54  -0.230  -0.320        0
  1977  2548-48-362     2   42   54  -0.230  -0.320        0
  1978  2548-55-347     2   42   54  -0.230  -0.320        0
  1979  2548-60-362     2   42   54  -0.230  -0.320        0
  1980  2547-66-48      1   42   54  -0.230  -0.220        0
  1981  2547-71-12      1   42   54  -0.230  -0.220        0
  1982  2547-71-350     1   42   54  -0.230  -0.220        0
  1983  2551-42-352    -2   42   55  -0.350  -0.440        0
  1984  2551-56-24     -2   42   55  -0.350  -0.440        0
  1985  2551-66-26     -2   42   55  -0.350  -0.440        0
  1986  2550-42-362     1   42   56  -0.390  -0.460        0
  1987  2550-56-24      1   42   56  -0.390  -0.460        0
  1988  2550-61-54      1   42   56  -0.390  -0.460        0
  1989  2550-66-26      1   42   56  -0.390  -0.460        0
  1990  2542-22-25     -2   42   56   0.000  -0.460        0
  1991  2542-27-54     -2   42   56   0.000  -0.460        0
  1992  2542-66-26     -2   42   56   0.000  -0.460        0
  1993  2552-56-24      2   42   56  -0.460   0.410        0
  1994  2552-61-54      2   42   56  -0.460   0.410        0
  1995  2552-66-33      2   42   56  -0.460   0.410        0
  1996  2552-71-62      2   42   56  -0.460   0.410        0
  1997  2598-1-274      1   40   57   0.310   0.490        0
  1998  2598-6-284      1   40   57   0.310   0.490        0
  1999  2598-11-62      1   40   57   0.310   0.490        0
  2000  2584-12-325     2   41   59  -0.380  -0.410        0
  2001  2584-17-3       2   41   59  -0.380  -0.410        0
  2002  2584-22-31      2   41   59  -0.380  -0.410        0
  2003  2584-27-11      2   41   59  -0.380  -0.410        0
  2004  2540-48-357     2   42   60   0.190   0.050        0
  2005  2540-55-343     2   42   60   0.190   0.050        0
  2006  2540-61-38      2   42   60   0.190   0.050        0
  2007  2540-66-59      2   42   60   0.190   0.050        0
  2008  2540-71-40      2   42   60   0.190   0.050        0
  2009  2540-71-365     2   42   60   0.190   0.050        0
  2010  2597-42-335     2   40   62   0.350  -0.160        0
  2011  2597-48-357     2   40   62   0.350  -0.160        0
  2012  2597-55-343     2   40   62   0.350  -0.160        0
  2013  2597-61-38      2   40   62   0.350  -0.160        0
  2014  2597-66-59      2   40   62   0.350  -0.160        0
  2015  2597-71-40      2   40   62   0.350  -0.160        0
  2016  2597-71-365     2   40   62   0.350  -0.160        0
  2017  2565-48-342     2   41   62   0.080   0.000        0
  2018  2575-55-343     2   41   61  -0.230   0.450        0
  2019  2539-11-34      2   42   61   0.190  -0.170        0
  2020  2539-22-79      2   42   61   0.190  -0.170        0
  2021  2539-32-46      2   42   61   0.190  -0.170        0
  2022  2539-37-34      2   42   61   0.190  -0.170        0
  2023  2539-48-337     2   42   61   0.190  -0.170        0
  2024  2539-60-321     2   42   61   0.190  -0.170        0
  2025  2539-65-299     2   42   61   0.190  -0.170        0
  2026  2539-71-13      2   42   61   0.190  -0.170        0
  2027  2539-71-365     2   42   61   0.190  -0.170        0
  2028  2478-61-31      2   44   61  -0.210   0.130        0
  2029  2478-66-1       2   44   61  -0.210   0.130        0
  2030  2478-71-41      2   44   61  -0.210   0.130        0
  2031  2478-71-365     2   44   61  -0.210   0.130        0
  2032  2474-16-298     1   44   62  -0.090   0.070        0
  2033  2474-22-32      1   44   62  -0.090   0.070        0
  2034  2474-27-10      1   44   62  -0.090   0.070        0
  2035  2531-42-362     2   42   60   0.380  -0.210        0
  2036  2531-48-357     2   42   60   0.380  -0.210        0
  2037  2531-55-343     2   42   60   0.380  -0.210        0
  2038  2531-61-38      2   42   60   0.380  -0.210        0
  2039  2531-66-59      2   42   60   0.380  -0.210        0
  2040  2531-71-40      2   42   60   0.380  -0.210        0
  2041  2531-71-365     2   42   60   0.380  -0.210        0
  2042  2504-71-63      2   43   60   0.110   0.120        0
  2043  2520-71-62      2   43   59  -0.390   0.140        0
  2044  2482-42-362    -2   44   60  -0.360  -0.500        0
  2045  2482-48-362    -2   44   60  -0.360  -0.500        0
  2046  2482-55-343    -2   44   60  -0.360  -0.500        0
  2047  2482-61-40     -2   44   60  -0.360  -0.500        0
  2048  2482-66-45     -2   44   60  -0.360  -0.500        0
  2049  2482-71-26     -2   44   60  -0.360  -0.500        0
  2050  2482-71-365    -2   44   60  -0.360  -0.500        0
  2051  2470-55-343     2   44   60  -0.010   0.050        0
  2052  2470-66-45      2   44   60  -0.010   0.050        0
  2053  2470-71-41      2   44   60  -0.010   0.050        0
  2054  2470-71-365     2   44   60  -0.010   0.050        0
  2055  2473-55-343     2   44   60  -0.010   0.050        0
  2056  2476-48-362     2   44   60   0.060   0.090        0
  2057  2476-55-343     2   44   60   0.060   0.090        0
  2058  2476-61-32      2   44   60   0.060   0.090        0
  2059  2476-66-45      2   44   60   0.060   0.090        0
  2060  2476-71-41      2   44   60   0.060   0.090        0
  2061  2476-71-365     2   44   60   0.060   0.090        0
  2062  2523-37-1       1   43   58  -0.430  -0.090        0
  2063  2512-71-62      2   43   58  -0.010  -0.190        0
  2064  2513-17-24      1   43   57  -0.010   0.030        0
  2065  2513-22-25      1   43   57  -0.010   0.030        0
  2066  2513-26-362     1   43   57  -0.010   0.030        0
  2067  2487-42-355     2   44   57  -0.470   0.450        0
  2068  2467-12-46      1   44   57   0.060  -0.030        0
  2069  2467-17-3       1   44   57   0.060  -0.030        0
  2070  2467-22-25      1   44   57   0.060  -0.030        0
  2071  2467-27-54      1   44   57   0.060  -0.030        0
  2072  2467-32-46      1   44   57   0.060  -0.030        0
  2073  2467-38-32      1   44   57   0.060  -0.030        0
  2074  2466-2-128      2   44   57   0.060   0.450        0
  2075  2496-42-335     2   43   58   0.300   0.490        0
  2076  2496-48-362     2   43   58   0.300   0.490        0
  2077  2496-55-343     2   43   58   0.300   0.490        0
  2078  2496-61-32      2   43   58   0.300   0.490        0
  2079  2496-66-45      2   43   58   0.300   0.490        0
  2080  2496-71-40      2   43   58   0.300   0.490        0
  2081  2496-71-365     2   43   58   0.300   0.490        0
  2082  2486-42-362     2   44   58  -0.320   0.270        0
  2083  2486-48-362     2   44   58  -0.320   0.270        0
  2084  2486-55-343     2   44   58  -0.320   0.270        0
  2085  2486-60-344     2   44   58  -0.320   0.270        0
  2086  2486-66-45      2   44   58  -0.320   0.270        0
  2087  2486-71-26      2   44   58  -0.320   0.270        0
  2088  2486-71-365     2   44   58  -0.320   0.270        0
  2089  2499-33-95     -2   43   58   0.370  -0.380        0
  2090  2493-66-33      2   43   58   0.340  -0.160        0
  2091  2490-66-45      2   43   58   0.450  -0.420        0
  2092  2490-71-26      2   43   58   0.450  -0.420        0
  2093  2490-71-365     2   43   58   0.450  -0.420        0
  2094  2538-17-24     -2   42   57   0.230  -0.460        0
  2095  2538-22-25     -2   42   57   0.230  -0.460        0
  2096  2538-27-47     -2   42   57   0.230  -0.460        0
  2097  2538-32-46     -2   42   57   0.230  -0.460        0
  2098  2538-37-34     -2   42   57   0.230  -0.460        0
  2099  2538-42-363    -2   42   57   0.230  -0.460        0
  2100  2538-48-338    -2   42   57   0.230  -0.460        0
  2101  2538-56-24     -2   42   57   0.230  -0.460        0
  2102  2538-60-321    -2   42   57   0.230  -0.460        0
  2103  2534-56-24      2   42   56   0.340   0.320        0
  2104  2534-66-19      2   42   56   0.340   0.320        0
  2105  2532-56-24      2   42   56   0.380  -0.170        0
  2106  2500-71-62      2   43   56   0.110   0.450        0
  2107  2517-48-362     2   43   55  -0.160   0.180        0
  2108  2517-55-343     2   43   55  -0.160   0.180        0
  2109  2517-61-32      2   43   55  -0.160   0.180        0
  2110  2517-66-40      2   43   55  -0.160   0.180        0
  2111  2517-71-350     2   43   55  -0.160   0.180        0
  2112  2514-17-3       1   43   55   0.070   0.410        0
  2113  2475-22-25     -2   44   55  -0.130   0.050        0
  2114  2475-27-11     -2   44   55  -0.130   0.050        0
  2115  2475-43-32     -2   44   55  -0.130   0.050        0
  2116  2475-48-362    -2   44   55  -0.130   0.050        0
  2117  2475-55-347    -2   44   55  -0.130   0.050        0
  2118  2475-60-362    -2   44   55  -0.130   0.050        0
  2119  2475-66-1      -2   44   55  -0.130   0.050        0
  2120  2475-71-350    -2   44   55  -0.130   0.050        0
  2121  2480-22-25     -2   44   57  -0.240  -0.460        0
  2122  2480-42-362    -2   44   57  -0.240  -0.460        0
  2123  2480-48-362    -2   44   57  -0.240  -0.460        0
  2124  2480-56-5      -2   44   57  -0.240  -0.460        0
  2125  2480-61-5      -2   44   57  -0.240  -0.460        0
  2126  2480-66-40     -2   44   57  -0.240  -0.460        0
  2127  2480-71-26     -2   44   57  -0.240  -0.460        0
  2128  2480-71-350    -2   44   57  -0.240  -0.460        0
  2129  2471-17-3       1   44   56   0.020   0.280        0
  2130  2471-27-11      1   44   56   0.020   0.280        0
  2131  2536-48-362    -2   42   55   0.340  -0.410        0
  2132  2536-55-347    -2   42   55   0.340  -0.410        0
  2133  2536-60-362    -2   42   55   0.340  -0.410        0
  2134  2536-66-40     -2   42   55   0.340  -0.410        0
  2135  2536-71-350    -2   42   55   0.340  -0.410        0
  2136  2528-42-362    -2   42   54   0.420  -0.350        0
  2137  2528-48-362    -2   42   54   0.420  -0.350        0
  2138  2528-55-347    -2   42   54   0.420  -0.350        0
  2139  2528-60-362    -2   42   54   0.420  -0.350        0
  2140  2528-66-48     -2   42   54   0.420  -0.350        0
  2141  2528-71-350    -2   42   54   0.420  -0.350        0
  2142  2509-17-3       2   43   54   0.070   0.500        0
  2143  2509-31-351     2   43   54   0.070   0.500        0
  2144  2521-42-363    -2   43   53  -0.390   0.490        0
  2145  2521-48-335    -2   43   53  -0.390   0.490        0
  2146  2521-56-25     -2   43   53  -0.390   0.490        0
  2147  2521-61-56     -2   43   53  -0.390   0.490        0
  2148  2505-56-25      2   43   54   0.100  -0.410        0
  2149  2506-48-335    -2   43   53   0.140   0.490        0
  2150  2506-56-25     -2   43   53   0.140   0.490        0
  2151  2506-61-56     -2   43   53   0.140   0.490        0
  2152  2506-66-18     -2   43   53   0.140   0.490        0
  2153  2506-71-11     -2   43   53   0.140   0.490        0
  2154  2506-71-365    -2   43   53   0.140   0.490        0
  2155  2488-1-357      2   44   54  -0.470   0.460        0
  2156  2488-7-316      2   44   54  -0.470   0.460        0
  2157  2488-10-283     2   44   54  -0.470   0.460        0
  2158  2488-17-33      2   44   54  -0.470   0.460        0
  2159  2488-22-25      2   44   54  -0.470   0.460        0
  2160  2488-27-47      2   44   54  -0.470   0.460        0
  2161  2488-37-27      2   44   54  -0.470   0.460        0
  2162  2472-1-357      1   44   54   0.140   0.070        0
  2163  2472-8-36       1   44   54   0.140   0.070        0
  2164  2472-12-50      1   44   54   0.140   0.070        0
  2165  2472-17-33      1   44   54   0.140   0.070        0
  2166  2537-22-25      2   42   52   0.260  -0.270        0
  2167  2537-27-47      2   42   52   0.260  -0.270        0
  2168  2537-32-46      2   42   52   0.260  -0.270        0
  2169  2537-37-34      2   42   52   0.260  -0.270        0
  2170  2537-42-363     2   42   52   0.260  -0.270        0
  2171  2537-56-20      2   42   52   0.260  -0.270        0
  2172  2497-42-363     1   43   51   0.290  -0.270        0
  2173  2497-48-337     1   43   51   0.290  -0.270        0
  2174  2497-56-20      1   43   51   0.290  -0.270        0
  2175  2434-48-362     2   45   53  -0.370  -0.450        0
  2176  2434-55-346     2   45   53  -0.370  -0.450        0
  2177  2434-61-6       2   45   53  -0.370  -0.450        0
  2178  2434-66-48      2   45   53  -0.370  -0.450        0
  2179  2434-71-12      2   45   53  -0.370  -0.450        0
  2180  2434-71-350     2   45   53  -0.370  -0.450        0
  2181  2355-42-362    -2   46   51   0.010   0.340        0
  2182  2355-48-362    -2   46   51   0.010   0.340        0
  2183  2355-55-343    -2   46   51   0.010   0.340        0
  2184  2355-61-40     -2   46   51   0.010   0.340        0
  2185  2355-71-47      3   46   51   0.010   0.340        0
  2186  2355-71-350     3   46   51   0.010   0.340        0
  2187  2428-56-38      2   45   55  -0.330  -0.370        0
  2188  2428-66-48      2   45   55  -0.330  -0.370        0
  2189  2428-71-5       2   45   55  -0.330  -0.370        0
  2190  2428-71-365     2   45   55  -0.330  -0.370        0
  2191  2433-66-48      2   45   54  -0.360  -0.120        0
  2192  2433-71-5       2   45   54  -0.360  -0.120        0
  2193  2433-71-365     2   45   54  -0.360  -0.120        0
  2194  2403-48-362    -2   45   54  -0.020  -0.280        0
  2195  2403-55-343    -2   45   54  -0.020  -0.280        0
  2196  2403-66-59     -2   45   54  -0.020  -0.280        0
  2197  2403-71-47     -2   45   54  -0.020  -0.280        0
  2198  2403-71-365    -2   45   54  -0.020  -0.280        0
  2199  2410-66-59      2   45   54   0.090  -0.090        0
  2200  2410-71-47      2   45   54   0.090  -0.090        0
  2201  2410-71-365     2   45   54   0.090  -0.090        0
  2202  2462-8-38       1   44   53   0.210   0.000        0
  2203  2464-12-50      1   44   53   0.180   0.000        0
  2204  2464-17-23      1   44   53   0.180   0.000        0
  2205  2464-22-23      1   44   53   0.180   0.000        0
  2206  2459-42-362     1   44   53   0.440  -0.030        0
  2207  2459-48-362     1   44   53   0.440  -0.030        0
  2208  2409-66-48      2   45   54   0.090   0.140        0
  2209  2409-71-12      2   45   54   0.090   0.140        0
  2210  2357-12-50      2   46   54   0.090   0.100        0
  2211  2357-17-35      2   46   54   0.090   0.100        0
  2212  2357-22-23      2   46   54   0.090   0.100        0
  2213  2357-27-34      2   46   54   0.090   0.100        0
  2214  2357-37-34      2   46   54   0.090   0.100        0
  2215  2357-66-48      2   46   54   0.090   0.100        0
  2216  2357-71-12      2   46   54   0.090   0.100        0
  2217  2357-71-365     2   46   54   0.090   0.100        0
  2218  2336-61-21      2   46   54   0.090   0.100        0
  2219  2363-56-38      2   46   54  -0.100   0.490        0
  2220  2363-66-48      2   46   54  -0.100   0.490        0
  2221  2363-71-5       2   46   54  -0.100   0.490        0
  2222  2363-71-365     2   46   54  -0.100   0.490        0
  2223  2460-22-25     -2   44   55   0.250   0.340        0
  2224  2460-48-362    -2   44   55   0.250   0.340        0
  2225  2460-55-343    -2   44   55   0.250   0.340        0
  2226  2460-61-20     -2   44   55   0.250   0.340        0
  2227  2460-66-49     -2   44   55   0.250   0.340        0
  2228  2460-71-41     -2   44   55   0.250   0.340        0
  2229  2460-71-350    -2   44   55   0.250   0.340        0
  2230  2399-56-38      2   45   55   0.320   0.050        0
  2231  2399-66-48      2   45   55   0.320   0.050        0
  2232  2399-71-5       2   45   55   0.320   0.050        0
  2233  2399-71-365     2   45   55   0.320   0.050        0
  2234  2373-56-6      -3   46   55  -0.450   0.050        0
  2235  2373-61-6      -3   46   55  -0.450   0.050        0
  2236  2373-66-48     -3   46   55  -0.450   0.050        0
  2237  2373-71-12     -3   46   55  -0.450   0.050        0
  2238  2373-71-365    -3   46   55  -0.450   0.050        0
  2239  2356-56-38      2   46   55  -0.020   0.470        0
  2240  2356-66-42      2   46   55  -0.020   0.470        0
  2241  2356-71-5       2   46   55  -0.020   0.470        0
  2242  2356-71-365     2   46   55  -0.020   0.470        0
  2243  2389-8-37       1   46   56  -0.480   0.150        0
  2244  2389-12-38      1   46   56  -0.480   0.150        0
  2245  2388-17-34      1   46   56  -0.480   0.190        0
  2246  2388-22-25      1   46   56  -0.480   0.190        0
  2247  2388-32-46      1   46   56  -0.480   0.190        0
  2248  2388-38-32      1   46   56  -0.480   0.190        0
  2249  2343-12-50     -2   46   56   0.090  -0.330        0
  2250  2343-17-35     -2   46   56   0.090  -0.330        0
  2251  2343-22-24     -2   46   56   0.090  -0.330        0
  2252  2343-61-21     -2   46   56   0.090  -0.330        0
  2253  2427-42-363    -2   45   58  -0.360   0.040        0
  2254  2427-48-337    -2   45   58  -0.360   0.040        0
  2255  2427-61-20     -2   45   58  -0.360   0.040        0
  2256  2427-66-31     -2   45   58  -0.360   0.040        0
  2257  2418-10-262     1   45   58   0.020  -0.290        0
  2258  2408-10-262     1   45   58   0.100   0.460        0
  2259  2431-7-316      1   45   57  -0.360   0.420        0
  2260  2431-12-38      1   45   57  -0.360   0.420        0
  2261  2446-22-25     -2   45   57  -0.360   0.450        0
  2262  2447-7-32       1   44   57   0.480  -0.290        0
  2263  2432-7-316      1   45   57  -0.360   0.060        0
  2264  2432-12-33      1   45   57  -0.360   0.060        0
  2265  2432-22-1       1   45   57  -0.360   0.060        0
  2266  2432-42-363     1   45   57  -0.360   0.060        0
  2267  2405-16-293     1   45   58   0.170  -0.450        0
  2268  2383-12-50      1   46   58  -0.330   0.270        0
  2269  2383-17-24      1   46   58  -0.330   0.270        0
  2270  2383-22-24      1   46   58  -0.330   0.270        0
  2271  2383-27-11      1   46   58  -0.330   0.270        0
  2272  2383-32-48      1   46   58  -0.330   0.270        0
  2273  2387-61-20     -2   46   58  -0.330   0.270        0
  2274  2387-66-28     -2   46   58  -0.330   0.270        0
  2275  2387-71-54     -2   46   58  -0.330   0.270        0
  2276  2372-27-47      2   46   58  -0.330  -0.380        0
  2277  2372-42-363     2   46   58  -0.330  -0.380        0
  2278  2372-56-19      2   46   58  -0.330  -0.380        0
  2279  2372-71-54      2   46   58  -0.330  -0.380        0
  2280  2332-61-20     -2   46   58   0.130   0.070        0
  2281  2332-66-28     -2   46   58   0.130   0.070        0
  2282  2332-71-54     -2   46   58   0.130   0.070        0
  2283  2437-22-24      2   45   60  -0.440   0.440        0
  2284  2437-27-15      2   45   60  -0.440   0.440        0
  2285  2437-32-48      2   45   60  -0.440   0.440        0
  2286  2438-12-306     1   45   60  -0.440  -0.300        0
  2287  2438-16-298     1   45   60  -0.440  -0.300        0
  2288  2430-42-363    -2   45   60  -0.440  -0.430        0
  2289  2430-48-337    -2   45   60  -0.440  -0.430        0
  2290  2430-56-19     -2   45   60  -0.440  -0.430        0
  2291  2430-66-28     -2   45   60  -0.440  -0.430        0
  2292  2430-71-54     -2   45   60  -0.440  -0.430        0
  2293  2444-10-264     1   45   60  -0.480  -0.080        0
  2294  2424-10-265     1   45   60  -0.210  -0.080        0
  2295  2425-10-265     1   45   60  -0.250   0.180        0
  2296  2414-10-263     1   45   60   0.060   0.180        0
  2297  2458-42-362    -2   44   59   0.220  -0.050        0
  2298  2458-48-362    -2   44   59   0.220  -0.050        0
  2299  2458-56-32     -2   44   59   0.220  -0.050        0
  2300  2458-61-20     -2   44   59   0.220  -0.050        0
  2301  2458-66-49     -2   44   59   0.220  -0.050        0
  2302  2458-71-41     -2   44   59   0.220  -0.050        0
  2303  2458-71-365    -2   44   59   0.220  -0.050        0
  2304  2439-42-363    -2   45   59  -0.440   0.010        0
  2305  2439-48-337    -2   45   59  -0.440   0.010        0
  2306  2439-56-19     -2   45   59  -0.440   0.010        0
  2307  2439-61-20     -2   45   59  -0.440   0.010        0
  2308  2439-66-31     -2   45   59  -0.440   0.010        0
  2309  2415-1-52       1   45   59   0.170   0.470        0
  2310  2407-27-47     -2   45   60   0.100  -0.470        0
  2311  2407-61-20     -2   45   60   0.100  -0.470        0
  2312  2407-66-28     -2   45   60   0.100  -0.470        0
  2313  2407-71-54     -2   45   60   0.100  -0.470        0
  2314  2402-10-263     1   45   59   0.290  -0.310        0
  2315  2394-56-26      1   45   60   0.360   0.120        0
  2316  2394-61-61      1   45   60   0.360   0.120        0
  2317  2394-66-25      1   45   60   0.360   0.120        0
  2318  2386-60-341     2   46   60  -0.480  -0.370        0
  2319  2386-66-49      2   46   60  -0.480  -0.370        0
  2320  2386-71-40      2   46   60  -0.480  -0.370        0
  2321  2386-71-365     2   46   60  -0.480  -0.370        0
  2322  2453-27-47      1   44   62   0.370   0.130        0
  2323  2413-2-121      2   45   62   0.060  -0.350        0
  2324  2412-12-304    -2   45   62   0.060  -0.090        0
  2325  2412-16-298    -2   45   62   0.060  -0.090        0
  2326  2412-16-364    -2   45   62   0.060  -0.090        0
  2327  2398-1-357      1   45   62   0.320   0.130        0
  2328  2398-7-2        1   45   62   0.320   0.130        0
  2329  2395-42-363    -2   45   62   0.360   0.130        0
  2330  2395-48-337    -2   45   62   0.360   0.130        0
  2331  2385-42-363    -2   46   62  -0.480   0.000        0
  2332  2385-48-362    -2   46   62  -0.480   0.000        0
  2333  2385-55-346    -2   46   62  -0.480   0.000        0
  2334  2385-61-31     -2   46   62  -0.480   0.000        0
  2335  2385-66-1      -2   46   62  -0.480   0.000        0
  2336  2385-71-41     -2   46   62  -0.480   0.000        0
  2337  2385-71-365    -2   46   62  -0.480   0.000        0
  2338  2282-12-46      1   47   62  -0.450   0.460        0
  2339  2282-17-24      1   47   62  -0.450   0.460        0
  2340  2282-22-24      1   47   62  -0.450   0.460        0
  2341  2282-32-48      1   47   62  -0.450   0.460        0
  2342  2326-26-293    -3   46   62   0.240  -0.260        0
  2343  2326-42-363    -3   46   62   0.240  -0.260        0
  2344  2326-48-362    -3   46   62   0.240  -0.260        0
  2345  2326-56-33     -3   46   62   0.240  -0.260        0
  2346  2326-61-41     -3   46   62   0.240  -0.260        0
  2347  2326-66-45     -3   46   62   0.240  -0.260        0
  2348  2326-71-41     -3   46   62   0.240  -0.260        0
  2349  2326-71-365    -3   46   62   0.240  -0.260        0
  2350  2260-56-26      1   47   62  -0.300  -0.190        0
  2351  2260-61-61      1   47   62  -0.300  -0.190        0
  2352  2260-66-25      1   47   62  -0.300  -0.190        0
  2353  2260-71-61      1   47   62  -0.300  -0.190        0
  2354  2202-71-61      2   48   61  -0.490  -0.130        0
  2355  2127-42-335    -2   48   61   0.120   0.090        0
  2356  2283-7-311     -2   47   59  -0.450   0.440        0
  2357  2283-17-24     -2   47   59  -0.450   0.440        0
  2358  2283-22-24     -2   47   59  -0.450   0.440        0
  2359  2283-27-47     -2   47   59  -0.450   0.440        0
  2360  2283-32-48     -2   47   59  -0.450   0.440        0
  2361  2283-35-15     -2   47   59  -0.450   0.440        0
  2362  2291-37-32     -2   46   60   0.470  -0.500        0
  2363  2291-48-338    -2   46   60   0.470  -0.500        0
  2364  2291-60-321    -2   46   60   0.470  -0.500        0
  2365  2291-71-13     -2   46   60   0.470  -0.500        0
  2366  2291-71-365    -2   46   60   0.470  -0.500        0
  2367  2304-7-311      1   46   59   0.200  -0.180        0
  2368  2304-12-38      1   46   59   0.200  -0.180        0
  2369  2304-17-3       1   46   59   0.200  -0.180        0
  2370  2304-22-24      1   46   59   0.200  -0.180        0
  2371  2304-27-11      1   46   59   0.200  -0.180        0
  2372  2237-7-79       2   47   60   0.160  -0.470        0
  2373  2237-12-38      2   47   60   0.160  -0.470        0
  2374  2237-17-24      2   47   60   0.160  -0.470        0
  2375  2237-22-24      2   47   60   0.160  -0.470        0
  2376  2237-27-16      2   47   60   0.160  -0.470        0
  2377  2218-56-34      2   47   59   0.430   0.080        0
  2378  2218-66-59      2   47   59   0.430   0.080        0
  2379  2218-71-54      2   47   59   0.430   0.080        0
  2380  2218-71-365     2   47   59   0.430   0.080        0
  2381  2212-26-349    -2   48   60  -0.420  -0.470        0
  2382  2212-42-362    -2   48   60  -0.420  -0.470        0
  2383  2212-61-20     -2   48   60  -0.420  -0.470        0
  2384  2212-66-59     -2   48   60  -0.420  -0.470        0
  2385  2212-71-54     -2   48   60  -0.420  -0.470        0
  2386  2212-71-365    -2   48   60  -0.420  -0.470        0
  2387  2213-56-34      2   47   59   0.470   0.400        0
  2388  2213-66-59      2   47   59   0.470   0.400        0
  2389  2213-71-54      2   47   59   0.470   0.400        0
  2390  2213-71-365     2   47   59   0.470   0.400        0
  2391  2177-42-363    -2   48   59  -0.300  -0.410        0
  2392  2177-48-337     2   48   59  -0.300  -0.410        0
  2393  2177-56-19      2   48   59  -0.300  -0.410        0
  2394  2177-66-31      2   48   59  -0.300  -0.410        0
  2395  2177-71-54      2   48   59  -0.300  -0.410        0
  2396  2175-6-283      2   48   60  -0.040  -0.500        0
  2397  2175-12-51      2   48   60  -0.040  -0.500        0
  2398  2175-17-24      2   48   60  -0.040  -0.500        0
  2399  2175-22-24      2   48   60  -0.040  -0.500        0
  2400  2175-27-47      2   48   60  -0.040  -0.500        0
  2401  2176-56-34      2   48   59  -0.230   0.080        0
  2402  2176-66-59      2   48   59  -0.230   0.080        0
  2403  2176-71-54      2   48   59  -0.230   0.080        0
  2404  2176-71-365     2   48   59  -0.230   0.080        0
  2405  2154-56-19     -2   48   60  -0.040  -0.470        0
  2406  2154-61-20     -2   48   60  -0.040  -0.470        0
  2407  2154-66-28     -2   48   60  -0.040  -0.470        0
  2408  2154-71-54     -2   48   60  -0.040  -0.470        0
  2409  2232-56-26      1   47   60   0.240   0.380        0
  2410  2232-61-20      1   47   60   0.240   0.380        0
  2411  2232-66-25      1   47   60   0.240   0.380        0
  2412  2232-71-53      1   47   60   0.240   0.380        0
  2413  2211-56-26      2   48   60  -0.300   0.310        0
  2414  2211-61-20      2   48   60  -0.300   0.310        0
  2415  2211-66-25      2   48   60  -0.300   0.310        0
  2416  2211-71-53      2   48   60  -0.300   0.310        0
  2417  2233-56-26      1   47   60   0.310  -0.240        0
  2418  2233-61-20      1   47   60   0.310  -0.240        0
  2419  2170-56-26      2   48   60  -0.190  -0.170        0
  2420  2170-66-25      2   48   60  -0.190  -0.170        0
  2421  2131-12-290     1   48   60   0.120   0.410        0
  2422  2131-56-26      2   48   60   0.120   0.410        0
  2423  2131-61-61      2   48   60   0.120   0.410        0
  2424  2131-66-25      2   48   60   0.120   0.410        0
  2425  2131-71-53      2   48   60   0.120   0.410        0
  2426  2137-42-363    -2   48   58   0.040  -0.450        0
  2427  2137-48-338    -2   48   58   0.040  -0.450        0
  2428  2137-56-24     -2   48   58   0.040  -0.450        0
  2429  2137-66-19     -2   48   58   0.040  -0.450        0
  2430  2137-71-60     -2   48   58   0.040  -0.450        0
  2431  2289-11-38      2   47   56  -0.490   0.150        0
  2432  2289-17-33      2   47   56  -0.490   0.150        0
  2433  2289-22-24      2   47   56  -0.490   0.150        0
  2434  2289-32-32      2   47   56  -0.490   0.150        0
  2435  2241-10-33      2   47   56   0.120   0.250        0
  2436  2241-17-33      2   47   56   0.120   0.250        0
  2437  2241-22-24      2   47   56   0.120   0.250        0
  2438  2241-42-363     2   47   56   0.120   0.250        0
  2439  2241-48-334     2   47   56   0.120   0.250        0
  2440  2241-56-26      2   47   56   0.120   0.250        0
  2441  2241-61-21      2   47   56   0.120   0.250        0
  2442  2236-1-357      2   47   56   0.200   0.380        0
  2443  2236-6-341      2   47   56   0.200   0.380        0
  2444  2236-12-59      2   47   56   0.200   0.380        0
  2445  2236-16-313     2   47   56   0.200   0.380        0
  2446  2236-22-32      2   47   56   0.200   0.380        0
  2447  2327-71-365     2   46   56   0.240  -0.400        0
  2448  2306-71-54      2   46   55   0.360   0.310        0
  2449  2306-71-365     2   46   55   0.360   0.310        0
  2450  2264-56-38      2   47   56  -0.300  -0.430        0
  2451  2264-66-48      2   47   56  -0.300  -0.430        0
  2452  2264-71-5       2   47   56  -0.300  -0.430        0
  2453  2264-71-365     2   47   56  -0.300  -0.430        0
  2454  2307-71-54      1   46   55   0.360  -0.050        0
  2455  2307-71-365     1   46   55   0.360  -0.050        0
  2456  2292-56-38      2   46   55   0.470  -0.280        0
  2457  2292-66-42      2   46   55   0.470  -0.280        0
  2458  2293-56-38      2   46   55   0.470  -0.310        0
  2459  2293-66-48      2   46   55   0.470  -0.310        0
  2460  2293-71-12      2   46   55   0.470  -0.310        0
  2461  2293-71-365     2   46   55   0.470  -0.310        0
  2462  2272-55-346     2   47   55  -0.370  -0.080        0
  2463  2272-71-54      1   47   55  -0.370  -0.080        0
  2464  2272-71-365     1   47   55  -0.370  -0.080        0
  2465  2268-66-3       2   47   55  -0.340  -0.210        0
  2466  2268-71-365     2   47   55  -0.340  -0.210        0
  2467  2242-56-38      2   47   55   0.080  -0.180        0
  2468  2242-66-48      2   47   55   0.080  -0.180        0
  2469  2242-71-365     2   47   55   0.080  -0.180        0
  2470  2257-56-38      2   47   55  -0.220   0.210        0
  2471  2257-66-48      2   47   55  -0.220   0.210        0
  2472  2258-56-38      2   47   55  -0.220   0.180        0
  2473  2258-66-48      2   47   55  -0.220   0.180        0
  2474  2187-42-362     2   48   55  -0.380  -0.250        0
  2475  2187-48-336     2   48   55  -0.380  -0.250        0
  2476  2187-56-5       2   48   55  -0.380  -0.250        0
  2477  2187-61-6       2   48   55  -0.380  -0.250        0
  2478  2187-66-48      2   48   55  -0.380  -0.250        0
  2479  2187-71-54      2   48   55  -0.380  -0.250        0
  2480  2187-71-349     2   48   55  -0.380  -0.250        0
  2481  2234-56-38      2   47   57   0.280  -0.460        0
  2482  2234-66-48      2   47   57   0.280  -0.460        0
  2483  2226-66-48      1   47   56   0.350  -0.110        0
  2484  2155-56-38      2   48   56  -0.040  -0.110        0
  2485  2155-66-48      2   48   56  -0.040  -0.110        0
  2486  2333-56-38      2   46   55   0.170  -0.470        0
  2487  2333-66-48      2   46   55   0.170  -0.470        0
  2488  2308-56-38      2   46   54   0.360   0.490        0
  2489  2308-66-48      2   46   54   0.360   0.490        0
  2490  2308-71-21      2   46   54   0.360   0.490        0
  2491  2308-71-365     2   46   54   0.360   0.490        0
  2492  2329-56-38      2   46   54   0.240   0.400        0
  2493  2329-66-48      2   46   54   0.240   0.400        0
  2494  2329-71-12      2   46   54   0.240   0.400        0
  2495  2329-71-365     2   46   54   0.240   0.400        0
  2496  2319-66-48      2   46   55   0.280  -0.380        0
  2497  2320-56-38      2   46   55   0.280  -0.410        0
  2498  2320-66-48      2   46   55   0.280  -0.410        0
  2499  2320-71-12      2   46   55   0.280  -0.410        0
  2500  2320-71-365     2   46   55   0.280  -0.410        0
  2501  2299-55-343     2   46   54   0.430   0.330        0
  2502  2299-71-54      1   46   54   0.430   0.330        0
  2503  2299-71-365     1   46   54   0.430   0.330        0
  2504  2274-56-38      2   47   55  -0.370  -0.470        0
  2505  2274-71-54      1   47   55  -0.370  -0.470        0
  2506  2274-71-365     1   47   55  -0.370  -0.470        0
  2507  2294-56-38      2   46   55   0.470  -0.470        0
  2508  2294-66-48      2   46   55   0.470  -0.470        0
  2509  2294-71-12      2   46   55   0.470  -0.470        0
  2510  2294-71-365     2   46   55   0.470  -0.470        0
  2511  2273-56-38      2   47   55  -0.410  -0.440        0
  2512  2273-66-48      2   47   55  -0.410  -0.440        0
  2513  2273-71-21      2   47   55  -0.410  -0.440        0
  2514  2273-71-365     2   47   55  -0.410  -0.440        0
  2515  2284-66-42      2   47   54  -0.450  -0.090        0
  2516  2167-1-365      2   48   54  -0.150   0.430        0
  2517  2167-7-310      2   48   54  -0.150   0.430        0
  2518  2167-11-38      2   48   54  -0.150   0.430        0
  2519  2183-12-50      2   48   54  -0.270   0.460        0
  2520  2183-17-34      2   48   54  -0.270   0.460        0
  2521  2183-22-23      2   48   54  -0.270   0.460        0
  2522  2183-32-47      2   48   54  -0.270   0.460        0
  2523  2183-38-32      2   48   54  -0.270   0.460        0
  2524  2168-42-364     2   48   54  -0.150   0.400        0
  2525  2243-42-364    -2   47   52   0.050   0.320        0
  2526  2243-56-25     -2   47   52   0.050   0.320        0
  2527  2243-66-19     -2   47   52   0.050   0.320        0
  2528  2108-66-48      2   48   56   0.310   0.280        0
  2529  2109-12-50      2   48   56   0.230  -0.240        0
  2530  2109-17-34      2   48   56   0.230  -0.240        0
  2531  2109-22-23      2   48   56   0.230  -0.240        0
  2532  2109-42-362     2   48   56   0.230  -0.240        0
  2533  2109-48-363     2   48   56   0.230  -0.240        0
  2534  2109-55-346     2   48   56   0.230  -0.240        0
  2535  2109-60-323     2   48   56   0.230  -0.240        0
  2536  2109-66-48      2   48   56   0.230  -0.240        0
  2537  2109-71-12      2   48   56   0.230  -0.240        0
  2538  2109-71-349     2   48   56   0.230  -0.240        0
  2539  1991-7-25      -2   50   56  -0.390   0.310        0
  2540  1991-12-50     -2   50   56  -0.390   0.310        0
  2541  1991-17-34     -2   50   56  -0.390   0.310        0
  2542  1991-22-23     -2   50   56  -0.390   0.310        0
  2543  1991-27-11     -2   50   56  -0.390   0.310        0
  2544  1991-38-32     -2   50   56  -0.390   0.310        0
  2545  1991-42-365    -2   50   56  -0.390   0.310        0
  2546  1991-48-337     2   50   56  -0.390   0.310        0
  2547  1991-56-25      2   50   56  -0.390   0.310        0
  2548  1991-60-323     2   50   56  -0.390   0.310        0
  2549  2038-12-51      2   49   58  -0.350   0.360        0
  2550  2038-17-24      2   49   58  -0.350   0.360        0
  2551  2038-22-24      2   49   58  -0.350   0.360        0
  2552  2038-56-19      2   49   58  -0.350   0.360        0
  2553  2122-61-21     -2   48   57   0.190  -0.070        0
  2554  2075-56-38      2   49   57  -0.420  -0.360        0
  2555  2039-61-21     -2   49   57   0.110   0.190        0
  2556  2021-61-20     -2   49   57   0.190   0.420        0
  2557  2020-61-21     -2   49   57   0.150   0.320        0
  2558  1987-66-48      2   50   57  -0.310  -0.100        0
  2559  1958-42-362    -2   50   57  -0.010   0.100        0
  2560  1958-48-362    -2   50   57  -0.010   0.100        0
  2561  1958-55-346    -2   50   57  -0.010   0.100        0
  2562  1958-61-20     -2   50   57  -0.010   0.100        0
  2563  1958-66-1      -2   50   57  -0.010   0.100        0
  2564  1958-71-47     -2   50   57  -0.010   0.100        0
  2565  1958-71-349    -2   50   57  -0.010   0.100        0
  2566  1952-12-301    -2   50   58  -0.120  -0.420        0
  2567  1952-17-4      -2   50   58  -0.120  -0.420        0
  2568  1952-22-32     -2   50   58  -0.120  -0.420        0
  2569  1952-27-11     -2   50   58  -0.120  -0.420        0
  2570  2107-56-26     -3   48   60   0.350   0.020        0
  2571  2107-61-20     -3   48   60   0.350   0.020        0
  2572  2107-71-53     -3   48   60   0.350   0.020        0
  2573  2079-7-152      2   48   60   0.120   0.410        0
  2574  2079-61-20      2   48   60   0.120   0.410        0
  2575  2057-42-362     2   49   60  -0.160   0.180        0
  2576  2057-48-362     2   49   60  -0.160   0.180        0
  2577  2057-55-346     2   49   60  -0.160   0.180        0
  2578  2057-61-20      2   49   60  -0.160   0.180        0
  2579  2057-65-354     2   49   60  -0.160   0.180        0
  2580  2057-71-56      2   49   60  -0.160   0.180        0
  2581  2057-71-365     2   49   60  -0.160   0.180        0
  2582  2161-6-283      2   48   59  -0.070   0.440        0
  2583  2161-10-283     2   48   59  -0.070   0.440        0
  2584  2161-17-24      2   48   59  -0.070   0.440        0
  2585  2161-22-24      2   48   59  -0.070   0.440        0
  2586  2161-27-47      2   48   59  -0.070   0.440        0
  2587  2161-32-48      2   48   59  -0.070   0.440        0
  2588  2161-38-32      2   48   59  -0.070   0.440        0
  2589  2094-61-20     -3   48   60   0.420  -0.470        0
  2590  2094-66-28     -3   48   60   0.420  -0.470        0
  2591  2094-71-54     -3   48   60   0.420  -0.470        0
  2592  2059-7-311     -2   49   59  -0.270   0.080        0
  2593  2059-12-51     -2   49   59  -0.270   0.080        0
  2594  2059-17-4      -2   49   59  -0.270   0.080        0
  2595  2059-22-24     -2   49   59  -0.270   0.080        0
  2596  2059-27-47     -2   49   59  -0.270   0.080        0
  2597  2059-61-21     -2   49   59  -0.270   0.080        0
  2598  1989-42-365     1   50   59  -0.390  -0.410        0
  2599  1989-56-17      2   50   59  -0.390  -0.410        0
  2600  1989-61-20      2   50   59  -0.390  -0.410        0
  2601  1968-42-365    -2   50   59  -0.120  -0.120        0
  2602  1968-56-17     -2   50   59  -0.120  -0.120        0
  2603  1968-61-20     -2   50   59  -0.120  -0.120        0
  2604  1937-56-17      2   50   59   0.150  -0.020        0
  2605  1937-61-20      2   50   59   0.150  -0.020        0
  2606  1937-66-27      2   50   59   0.150  -0.020        0
  2607  2007-61-21      1   49   60   0.460   0.120        0
  2608  2007-66-25      1   49   60   0.460   0.120        0
  2609  1981-61-21     -2   50   60  -0.240   0.180        0
  2610  2037-66-32      1   49   62   0.040   0.230        0
  2611  2106-26-349    -2   48   61   0.310  -0.070        0
  2612  2106-32-32     -2   48   61   0.310  -0.070        0
  2613  2106-42-362    -2   48   61   0.310  -0.070        0
  2614  2106-48-362    -2   48   61   0.310  -0.070        0
  2615  2106-56-34     -2   48   61   0.310  -0.070        0
  2616  2106-61-41     -2   48   61   0.310  -0.070        0
  2617  2106-66-54     -2   48   61   0.310  -0.070        0
  2618  2106-71-41     -2   48   61   0.310  -0.070        0
  2619  2106-71-365    -2   48   61   0.310  -0.070        0
  2620  1951-12-51     -2   50   62   0.070   0.140        0
  2621  1951-17-39     -2   50   62   0.070   0.140        0
  2622  1951-22-28     -2   50   62   0.070   0.140        0
  2623  1951-38-354    -2   50   62   0.070   0.140        0
  2624  1951-42-363    -2   50   62   0.070   0.140        0
  2625  1951-48-362    -2   50   62   0.070   0.140        0
  2626  1951-55-346    -2   50   62   0.070   0.140        0
  2627  1951-61-41     -2   50   62   0.070   0.140        0
  2628  1951-66-49     -2   50   62   0.070   0.140        0
  2629  1951-71-56     -2   50   62   0.070   0.140        0
  2630  1951-71-365    -2   50   62   0.070   0.140        0
  2631  2494-1-365      2   43   65   0.300  -0.360        0
  2632  2489-22-66     -2   43   63   0.450  -0.410        0
  2633  2489-27-87     -2   43   63   0.450  -0.410        0
  2634  2489-32-1      -2   43   63   0.450  -0.410        0
  2635  2489-33-60     -2   43   63   0.450  -0.410        0
  2636  2489-42-363     2   43   63   0.450  -0.410        0
  2637  2489-55-349     2   43   63   0.450  -0.410        0
  2638  2429-61-61      1   45   64  -0.370  -0.470        0
  2639  2429-66-25      1   45   64  -0.370  -0.470        0
  2640  2429-71-53      1   45   64  -0.370  -0.470        0
  2641  2457-22-65     -2   44   63   0.250  -0.440        0
  2642  2457-26-341    -2   44   63   0.250  -0.440        0
  2643  2457-31-335    -2   44   63   0.250  -0.440        0
  2644  2457-33-60     -2   44   63   0.250  -0.440        0
  2645  2457-42-363    -2   44   63   0.250  -0.440        0
  2646  2457-48-337    -2   44   63   0.250  -0.440        0
  2647  2457-56-18     -2   44   63   0.250  -0.440        0
  2648  2457-61-47     -2   44   63   0.250  -0.440        0
  2649  2457-66-32     -2   44   63   0.250  -0.440        0
  2650  2457-71-14     -2   44   63   0.250  -0.440        0
  2651  2457-71-42     -2   44   63   0.250  -0.440        0
  2652  2457-71-365    -2   44   63   0.250  -0.440        0
  2653  2457-71-365    -2   44   63   0.250  -0.440        0
  2654  2426-61-61      1   45   63  -0.330  -0.350        0
  2655  2426-66-25      1   45   63  -0.330  -0.350        0
  2656  2378-22-66      2   46   63  -0.410   0.140        0
  2657  2378-26-341     2   46   63  -0.410   0.140        0
  2658  2378-31-335     2   46   63  -0.410   0.140        0
  2659  2377-7-1        1   46   63  -0.410   0.400        0
  2660  2377-12-92      1   46   63  -0.410   0.400        0
  2661  2382-1-365      1   46   63  -0.450  -0.350        0
  2662  2369-16-364     1   46   63  -0.220  -0.350        0
  2663  2397-10-255     2   45   64   0.320   0.410        0
  2664  2381-66-32      2   46   64  -0.450  -0.210        0
  2665  2368-56-25      2   46   65  -0.140  -0.460        0
  2666  2368-61-48      2   46   65  -0.140  -0.460        0
  2667  2364-56-25     -2   46   64  -0.180   0.410        0
  2668  2364-61-48     -2   46   64  -0.180   0.410        0
  2669  2364-66-24     -2   46   64  -0.180   0.410        0
  2670  2364-71-14     -2   46   64  -0.180   0.410        0
  2671  2364-71-365    -2   46   64  -0.180   0.410        0
  2672  2361-56-25      2   46   64  -0.140   0.150        0
  2673  2361-61-48      2   46   64  -0.140   0.150        0
  2674  2361-66-24      2   46   64  -0.140   0.150        0
  2675  2361-71-14      2   46   64  -0.140   0.150        0
  2676  2361-71-365     2   46   64  -0.140   0.150        0
  2677  2349-42-364    -2   46   64   0.050   0.440        0
  2678  2349-48-341    -2   46   64   0.050   0.440        0
  2679  2349-56-18     -2   46   64   0.050   0.440        0
  2680  2349-61-48     -2   46   64   0.050   0.440        0
  2681  2349-66-24     -2   46   64   0.050   0.440        0
  2682  2349-71-14     -2   46   64   0.050   0.440        0
  2683  2349-71-365    -2   46   64   0.050   0.440        0
  2684  2422-32-60      1   45   65  -0.060   0.450        0
  2685  2422-33-60      1   45   65  -0.060   0.450        0
  2686  2422-42-363     2   45   65  -0.060   0.450        0
  2687  2422-48-357     2   45   65  -0.060   0.450        0
  2688  2422-55-349     2   45   65  -0.060   0.450        0
  2689  2422-61-3       2   45   65  -0.060   0.450        0
  2690  2406-22-65      2   45   65   0.210  -0.170        0
  2691  2396-16-298     1   45   65   0.320  -0.100        0
  2692  2396-22-32      1   45   65   0.320  -0.100        0
  2693  2396-27-10      1   45   65   0.320  -0.100        0
  2694  2401-22-65      1   45   65   0.280  -0.330        0
  2695  2376-26-341    -2   46   65  -0.410  -0.100        0
  2696  2365-22-65     -2   46   65  -0.180  -0.330        0
  2697  2365-27-4      -2   46   65  -0.180  -0.330        0
  2698  2335-56-18     -2   46   65   0.090  -0.320        0
  2699  2335-60-322    -2   46   65   0.090  -0.320        0
  2700  2335-65-326    -2   46   65   0.090  -0.320        0
  2701  2335-71-365    -2   46   65   0.090  -0.320        0
  2702  2348-56-18     -3   46   65   0.160  -0.070        0
  2703  2348-61-48     -3   46   65   0.160  -0.070        0
  2704  2348-66-24     -3   46   65   0.160  -0.070        0
  2705  2348-71-365    -3   46   65   0.160  -0.070        0
  2706  2347-42-364     2   46   65   0.090   0.420        0
  2707  2347-48-337     2   46   65   0.090   0.420        0
  2708  2347-56-18      2   46   65   0.090   0.420        0
  2709  2347-61-48      2   46   65   0.090   0.420        0
  2710  2347-66-24      2   46   65   0.090   0.420        0
  2711  2380-61-48      1   46   66  -0.490  -0.420        0
  2712  2392-61-48      2   45   66   0.360  -0.420        0
  2713  2391-61-48      1   46   66  -0.490  -0.390        0
  2714  2391-66-25      1   46   66  -0.490  -0.390        0
  2715  2374-66-40      2   46   66   0.130  -0.030        0
  2716  2374-71-365     2   46   66   0.130  -0.030        0
  2717  2354-16-361     1   46   67   0.010   0.170        0
  2718  2353-48-274     1   46   67   0.010   0.270        0
  2719  2352-22-65      2   46   68   0.010  -0.080        0
  2720  2351-66-45      1   46   69   0.010   0.160        0
  2721  2351-71-42      1   46   69   0.010   0.160        0
  2722  2351-71-365     1   46   69   0.010   0.160        0
  2723  2341-55-348     1   46   70   0.080  -0.230        0
  2724  2341-66-45      1   46   70   0.080  -0.230        0
  2725  2341-71-42      1   46   70   0.080  -0.230        0
  2726  2341-71-365     1   46   70   0.080  -0.230        0
  2727  2350-42-355     2   46   69   0.010   0.450        0
  2728  2350-48-355     2   46   69   0.010   0.450        0
  2729  2350-55-348     2   46   69   0.010   0.450        0
  2730  2350-61-3       2   46   69   0.010   0.450        0
  2731  2350-71-42      2   46   69   0.010   0.450        0
  2732  2350-71-365     2   46   69   0.010   0.450        0
  2733  2358-48-306     2   46   70  -0.070   0.390        0
  2734  2215-1-357      2   47   74   0.420  -0.420        0
  2735  2215-6-295      2   47   74   0.420  -0.420        0
  2736  2215-10-349     2   47   74   0.420  -0.420        0
  2737  2215-22-68      2   47   74   0.420  -0.420        0
  2738  2215-31-335     2   47   74   0.420  -0.420        0
  2739  2215-33-1       2   47   74   0.420  -0.420        0
  2740  2215-39-60      2   47   74   0.420  -0.420        0
  2741  2215-42-356     2   47   74   0.420  -0.420        0
  2742  2215-48-336     2   47   74   0.420  -0.420        0
  2743  2164-48-337     1   48   73  -0.160  -0.270        0
  2744  2164-56-24      1   48   73  -0.160  -0.270        0
  2745  2164-61-54      1   48   73  -0.160  -0.270        0
  2746  2164-66-24      1   48   73  -0.160  -0.270        0
  2747  2164-71-41      1   48   73  -0.160  -0.270        0
  2748  2135-48-337    -2   48   74   0.070  -0.030        0
  2749  2135-56-24     -2   48   74   0.070  -0.030        0
  2750  2135-61-55     -2   48   74   0.070  -0.030        0
  2751  2135-66-26     -2   48   74   0.070  -0.030        0
  2752  2135-71-42     -2   48   74   0.070  -0.030        0
  2753  2238-56-23      1   47   72   0.080  -0.310        0
  2754  2334-22-67      2   46   71   0.240  -0.150        0
  2755  2334-26-349     2   46   71   0.240  -0.150        0
  2756  2334-33-60      2   46   71   0.240  -0.150        0
  2757  2334-42-363     2   46   71   0.240  -0.150        0
  2758  2334-48-274     2   46   71   0.240  -0.150        0
  2759  2334-55-321     2   46   71   0.240  -0.150        0
  2760  2334-60-319     2   46   71   0.240  -0.150        0
  2761  2334-65-326     2   46   71   0.240  -0.150        0
  2762  2334-71-14      2   46   71   0.240  -0.150        0
  2763  2334-71-42      2   46   71   0.240  -0.150        0
  2764  2334-71-365     2   46   71   0.240  -0.150        0
  2765  2334-71-365     2   46   71   0.240  -0.150        0
  2766  2225-55-321     1   47   71   0.350  -0.410        0
  2767  2223-55-279     1   47   71   0.380  -0.410        0
  2768  2223-61-47      1   47   71   0.380  -0.410        0
  2769  2223-66-32      1   47   71   0.380  -0.410        0
  2770  2223-71-14      1   47   71   0.380  -0.410        0
  2771  2223-71-365     1   47   71   0.380  -0.410        0
  2772  2224-55-321     1   47   71   0.350  -0.380        0
  2773  2224-61-47      1   47   71   0.350  -0.380        0
  2774  2224-66-32      1   47   71   0.350  -0.380        0
  2775  2142-48-274     2   48   71   0.000  -0.180        0
  2776  2150-48-306     2   48   71  -0.040  -0.180        0
  2777  2150-55-321     2   48   71  -0.040  -0.180        0
  2778  2141-48-274     2   48   71   0.110   0.010        0
  2779  2141-55-321     2   48   71   0.110   0.010        0
  2780  2141-61-47      2   48   71   0.110   0.010        0
  2781  2141-71-14      2   48   71   0.110   0.010        0
  2782  2141-71-365     2   48   71   0.110   0.010        0
  2783  2140-48-274     2   48   71   0.000   0.400        0
  2784  2140-55-321     2   48   71   0.000   0.400        0
  2785  2140-66-18     -2   48   71   0.000   0.400        0
  2786  2209-27-11      2   47   72   0.310   0.210        0
  2787  2209-31-351     2   47   72   0.310   0.210        0
  2788  2209-37-343     2   47   72   0.310   0.210        0
  2789  2208-56-23      1   47   72   0.460   0.210        0
  2790  2208-60-321     1   47   72   0.460   0.210        0
  2791  2208-65-299     1   47   72   0.460   0.210        0
  2792  2208-71-32      1   47   72   0.460   0.210        0
  2793  2208-71-365     1   47   72   0.460   0.210        0
  2794  2206-48-274    -2   47   72   0.460   0.310        0
  2795  2206-55-321    -2   47   72   0.460   0.310        0
  2796  2206-61-47     -2   47   72   0.460   0.310        0
  2797  2206-71-14     -2   47   72   0.460   0.310        0
  2798  2206-71-365    -2   47   72   0.460   0.310        0
  2799  2182-55-321     1   48   72  -0.270  -0.340        0
  2800  2174-55-279     1   48   72  -0.230  -0.310        0
  2801  2174-60-319     1   48   72  -0.230  -0.310        0
  2802  2174-65-326     1   48   72  -0.230  -0.310        0
  2803  2174-71-14      1   48   72  -0.230  -0.310        0
  2804  2174-71-365     1   48   72  -0.230  -0.310        0
  2805  2181-55-321     1   48   72  -0.270  -0.270        0
  2806  2181-61-47      1   48   72  -0.270  -0.270        0
  2807  2139-1-357      1   48   72   0.000  -0.080        0
  2808  2138-48-274     1   48   72   0.000   0.310        0
  2809  2138-55-321     1   48   72   0.000   0.310        0
  2810  2138-61-47      1   48   72   0.000   0.310        0
  2811  2138-66-24      1   48   72   0.000   0.310        0
  2812  2138-71-14      1   48   72   0.000   0.310        0
  2813  2138-71-365     1   48   72   0.000   0.310        0
  2814  2253-16-361     1   47   70  -0.230  -0.320        0
  2815  2251-48-274    -2   47   71  -0.230  -0.480        0
  2816  2251-55-321    -2   47   71  -0.230  -0.480        0
  2817  2314-12-116    -2   46   69   0.280   0.420        0
  2818  2314-22-67      2   46   69   0.280   0.420        0
  2819  2314-33-60      2   46   69   0.280   0.420        0
  2820  2290-7-322      1   46   69   0.470   0.160        0
  2821  2290-10-32      1   46   69   0.470   0.160        0
  2822  2290-42-364     1   46   69   0.470   0.160        0
  2823  2290-48-355     1   46   69   0.470   0.160        0
  2824  2290-55-348     1   46   69   0.470   0.160        0
  2825  2290-65-354     1   46   69   0.470   0.160        0
  2826  2290-71-42      1   46   69   0.470   0.160        0
  2827  2290-71-365     1   46   69   0.470   0.160        0
  2828  2286-42-357    -2   47   69  -0.490   0.450        0
  2829  2286-48-355    -2   47   69  -0.490   0.450        0
  2830  2286-61-3      -2   47   69  -0.490   0.450        0
  2831  2286-66-45     -2   47   69  -0.490   0.450        0
  2832  2287-42-357     1   47   69  -0.490   0.250        0
  2833  2287-61-3       1   47   69  -0.490   0.250        0
  2834  2287-71-42      1   47   69  -0.490   0.250        0
  2835  2287-71-365     1   47   69  -0.490   0.250        0
  2836  2278-22-67     -2   47   69  -0.460   0.190        0
  2837  2278-26-362    -2   47   69  -0.460   0.190        0
  2838  2278-31-335    -2   47   69  -0.460   0.190        0
  2839  2278-33-60     -2   47   69  -0.460   0.190        0
  2840  2278-48-274    -2   47   69  -0.460   0.190        0
  2841  2129-66-40      2   48   69   0.110   0.000        0
  2842  2129-71-42      2   48   69   0.110   0.000        0
  2843  2129-71-365     2   48   69   0.110   0.000        0
  2844  2146-7-1        1   48   69   0.000   0.190        0
  2845  2146-11-86      1   48   69   0.000   0.190        0
  2846  2146-22-67      1   48   69   0.000   0.190        0
  2847  2146-37-263     1   48   69   0.000   0.190        0
  2848  2147-42-363     1   48   69   0.000   0.160        0
  2849  2147-48-362     1   48   69   0.000   0.160        0
  2850  2147-55-349     1   48   69   0.000   0.160        0
  2851  2145-2-132      1   48   69   0.000   0.450        0
  2852  2144-2-132      1   48   70   0.000   0.200        0
  2853  2126-48-274     2   48   70  -0.310   0.330        0
  2854  2126-55-321     2   48   70  -0.310   0.330        0
  2855  2126-61-47      2   48   70  -0.310   0.330        0
  2856  2126-71-14      2   48   70  -0.310   0.330        0
  2857  2126-71-365     2   48   70  -0.310   0.330        0
  2858  2315-10-262     1   46   68   0.280   0.150        0
  2859  2288-10-262     2   47   68  -0.490   0.440        0
  2860  2248-56-23     -2   47   68  -0.030  -0.050        0
  2861  2239-16-361     1   47   68   0.080   0.020        0
  2862  2239-22-32      1   47   68   0.080   0.020        0
  2863  2239-27-10      1   47   68   0.080   0.020        0
  2864  2239-56-23      1   47   68   0.080   0.020        0
  2865  2267-56-25      1   47   67  -0.340  -0.120        0
  2866  2255-22-65      1   47   67  -0.220   0.430        0
  2867  2255-32-60      1   47   67  -0.220   0.430        0
  2868  2255-38-60      1   47   67  -0.220   0.430        0
  2869  2240-56-25      1   47   68  -0.030  -0.050        0
  2870  2240-66-32      1   47   68  -0.030  -0.050        0
  2871  2240-71-54      1   47   68  -0.030  -0.050        0
  2872  2114-61-49      2   48   68  -0.380   0.250        0
  2873  2114-66-40      2   48   68  -0.380   0.250        0
  2874  2114-71-42      2   48   68  -0.380   0.250        0
  2875  2114-71-365     2   48   68  -0.380   0.250        0
  2876  2191-56-23      1   48   68  -0.380   0.180        0
  2877  2191-61-61      1   48   68  -0.380   0.180        0
  2878  2191-66-25      1   48   68  -0.380   0.180        0
  2879  2210-48-334     1   47   69   0.460  -0.460        0
  2880  2210-55-321     1   47   69   0.460  -0.460        0
  2881  2210-61-47      1   47   69   0.460  -0.460        0
  2882  2210-66-24      1   47   69   0.460  -0.460        0
  2883  2210-71-42      1   47   69   0.460  -0.460        0
  2884  2210-71-365     1   47   69   0.460  -0.460        0
  2885  2162-48-274     2   48   68  -0.150   0.180        0
  2886  2162-65-354     2   48   68  -0.150   0.180        0
  2887  2162-71-42      2   48   68  -0.150   0.180        0
  2888  2162-71-365     2   48   68  -0.150   0.180        0
  2889  2298-61-48     -3   46   66   0.390  -0.390        0
  2890  2298-66-24     -3   46   66   0.390  -0.390        0
  2891  2298-71-14     -3   46   66   0.390  -0.390        0
  2892  2298-71-365    -3   46   66   0.390  -0.390        0
  2893  2250-22-69      2   47   65  -0.150   0.160        0
  2894  2250-27-61      2   47   65  -0.150   0.160        0
  2895  2227-42-363    -3   47   65   0.310  -0.300        0
  2896  2227-48-365    -3   47   65   0.310  -0.300        0
  2897  2227-55-349    -3   47   65   0.310  -0.300        0
  2898  2227-61-54     -3   47   65   0.310  -0.300        0
  2899  2227-66-45     -3   47   65   0.310  -0.300        0
  2900  2227-71-49     -3   47   65   0.310  -0.300        0
  2901  2227-71-365    -3   47   65   0.310  -0.300        0
  2902  2152-22-68      1   48   66  -0.040   0.170        0
  2903  2263-10-144     1   47   63  -0.300  -0.090        0
  2904  2276-22-61     -2   47   63  -0.340  -0.020        0
  2905  2276-26-301    -2   47   63  -0.340  -0.020        0
  2906  2276-48-362    -2   47   63  -0.340  -0.020        0
  2907  2276-55-349    -2   47   63  -0.340  -0.020        0
  2908  2276-61-33     -2   47   63  -0.340  -0.020        0
  2909  2276-66-32     -2   47   63  -0.340  -0.020        0
  2910  2276-71-14     -2   47   63  -0.340  -0.020        0
  2911  2276-71-41     -2   47   63  -0.340  -0.020        0
  2912  2276-71-365    -2   47   63  -0.340  -0.020        0
  2913  2276-71-365    -2   47   63  -0.340  -0.020        0
  2914  2229-61-33      2   47   63   0.350   0.440        0
  2915  2229-66-32      2   47   63   0.350   0.440        0
  2916  2229-71-14      2   47   63   0.350   0.440        0
  2917  2229-71-41      2   47   63   0.350   0.440        0
  2918  2229-71-365     2   47   63   0.350   0.440        0
  2919  2229-71-365     2   47   63   0.350   0.440        0
  2920  2235-42-335     1   47   63   0.240   0.240        0
  2921  2130-8-49       1   48   63   0.080  -0.340        0
  2922  2130-12-58      1   48   63   0.080  -0.340        0
  2923  2130-17-87      1   48   63   0.080  -0.340        0
  2924  2130-22-79      1   48   63   0.080  -0.340        0
  2925  2130-32-60      1   48   63   0.080  -0.340        0
  2926  2130-42-363     1   48   63   0.080  -0.340        0
  2927  2130-48-362     1   48   63   0.080  -0.340        0
  2928  2153-48-362    -2   48   63  -0.040  -0.380        0
  2929  2153-55-349    -2   48   63  -0.040  -0.380        0
  2930  2153-61-33     -2   48   63  -0.040  -0.380        0
  2931  2153-71-41     -2   48   63  -0.040  -0.380        0
  2932  2153-71-365    -2   48   63  -0.040  -0.380        0
  2933  2217-66-32      1   47   64   0.390   0.280        0
  2934  2231-22-65      1   47   64   0.280  -0.340        0
  2935  2231-42-363     1   47   64   0.280  -0.340        0
  2936  2231-48-362     1   47   64   0.280  -0.340        0
  2937  2231-55-349     1   47   64   0.280  -0.340        0
  2938  2231-61-54      1   47   64   0.280  -0.340        0
  2939  2231-66-49      1   47   64   0.280  -0.340        0
  2940  2231-71-41      1   47   64   0.280  -0.340        0
  2941  2231-71-365     1   47   64   0.280  -0.340        0
  2942  2228-42-363    -2   47   64   0.310  -0.300        0
  2943  2228-48-362    -2   47   64   0.310  -0.300        0
  2944  2228-55-349    -2   47   64   0.310  -0.300        0
  2945  2228-61-54     -2   47   64   0.310  -0.300        0
  2946  2228-66-49     -2   47   64   0.310  -0.300        0
  2947  2228-71-41     -2   47   64   0.310  -0.300        0
  2948  2228-71-365    -2   47   64   0.310  -0.300        0
  2949  2056-12-58      1   49   64  -0.190  -0.080        0
  2950  2056-22-66      1   49   64  -0.190  -0.080        0
  2951  2056-27-61      1   49   64  -0.190  -0.080        0
  2952  2032-7-32       1   49   63   0.040   0.270        0
  2953  2032-12-58      1   49   63   0.040   0.270        0
  2954  2032-32-83      1   49   63   0.040   0.270        0
  2955  2033-42-363    -2   49   63   0.040   0.270        0
  2956  2033-48-362    -2   49   63   0.040   0.270        0
  2957  2033-56-34     -2   49   63   0.040   0.270        0
  2958  2033-61-56     -2   49   63   0.040   0.270        0
  2959  2033-66-54     -2   49   63   0.040   0.270        0
  2960  2033-71-49     -2   49   63   0.040   0.270        0
  2961  2033-71-365    -2   49   63   0.040   0.270        0
  2962  2000-37-34      1   50   63  -0.470   0.180        0
  2963  2000-55-349     1   50   63  -0.470   0.180        0
  2964  2004-48-357     2   49   63   0.490   0.270        0
  2965  2004-71-49      2   49   63   0.490   0.270        0
  2966  2004-71-365     2   49   63   0.490   0.270        0
  2967  2019-17-82     -2   49   64   0.300   0.020        0
  2968  2019-22-69     -2   49   64   0.300   0.020        0
  2969  2019-42-335    -2   49   64   0.300   0.020        0
  2970  2019-48-365    -2   49   64   0.300   0.020        0
  2971  2019-66-40     -2   49   64   0.300   0.020        0
  2972  2019-71-49     -2   49   64   0.300   0.020        0
  2973  2019-71-365    -2   49   64   0.300   0.020        0
  2974  2015-66-40      2   49   64   0.300  -0.080        0
  2975  2015-71-49      2   49   64   0.300  -0.080        0
  2976  2015-71-365     2   49   64   0.300  -0.080        0
  2977  2023-42-363    -3   49   64   0.300  -0.010        0
  2978  2023-48-365    -3   49   64   0.300  -0.010        0
  2979  2023-55-349    -3   49   64   0.300  -0.010        0
  2980  2023-61-54     -3   49   64   0.300  -0.010        0
  2981  2023-71-49     -3   49   64   0.300  -0.010        0
  2982  2023-71-365    -3   49   64   0.300  -0.010        0
  2983  2060-48-365    -2   49   66  -0.230   0.460        0
  2984  2060-55-356    -2   49   66  -0.230   0.460        0
  2985  2060-61-54     -2   49   66  -0.230   0.460        0
  2986  2060-66-19     -2   49   66  -0.230   0.460        0
  2987  2060-71-42     -2   49   66  -0.230   0.460        0
  2988  2060-71-365    -2   49   66  -0.230   0.460        0
  2989  2115-22-66      2   48   65   0.270   0.190        0
  2990  2105-42-363    -2   48   65   0.350   0.130        0
  2991  2105-48-362    -2   48   65   0.350   0.130        0
  2992  2105-56-33     -2   48   65   0.350   0.130        0
  2993  2105-61-33     -2   48   65   0.350   0.130        0
  2994  2105-66-32     -2   48   65   0.350   0.130        0
  2995  2105-71-42     -2   48   65   0.350   0.130        0
  2996  2105-71-365    -2   48   65   0.350   0.130        0
  2997  2098-65-354     2   48   65   0.380   0.130        0
  2998  2098-71-42      2   48   65   0.380   0.130        0
  2999  2098-71-365     2   48   65   0.380   0.130        0
  3000  2103-42-363    -2   48   65   0.350   0.000        0
  3001  2103-48-362    -2   48   65   0.350   0.000        0
  3002  2103-61-33     -2   48   65   0.350   0.000        0
  3003  2103-66-32     -2   48   65   0.350   0.000        0
  3004  2103-71-42     -2   48   65   0.350   0.000        0
  3005  2103-71-365    -2   48   65   0.350   0.000        0
  3006  2055-22-66      1   49   65  -0.200   0.420        0
  3007  2055-32-83      1   49   65  -0.200   0.420        0
  3008  2014-12-66      1   49   66   0.340   0.000        0
  3009  2014-22-69      1   49   66   0.340   0.000        0
  3010  2014-27-3       1   49   66   0.340   0.000        0
  3011  2014-42-363     1   49   66   0.340   0.000        0
  3012  2014-48-357     1   49   66   0.340   0.000        0
  3013  2014-66-19      1   49   66   0.340   0.000        0
  3014  2014-71-42      1   49   66   0.340   0.000        0
  3015  2014-71-365     1   49   66   0.340   0.000        0
  3016  2013-42-363    -2   49   66   0.340  -0.030        0
  3017  2013-48-357    -2   49   66   0.340  -0.030        0
  3018  2013-55-350    -2   49   66   0.340  -0.030        0
  3019  2013-61-33     -2   49   66   0.340  -0.030        0
  3020  2013-66-19     -2   49   66   0.340  -0.030        0
  3021  2013-71-42     -2   49   66   0.340  -0.030        0
  3022  2013-71-365    -2   49   66   0.340  -0.030        0
  3023  1974-22-79      1   50   66  -0.160  -0.030        0
  3024  1974-26-307     1   50   66  -0.160  -0.030        0
  3025  1974-42-363     1   50   66  -0.160  -0.030        0
  3026  1974-48-357     1   50   66  -0.160  -0.030        0
  3027  1966-42-363    -2   50   66  -0.090  -0.160        0
  3028  1966-48-350    -2   50   66  -0.090  -0.160        0
  3029  1966-55-350    -2   50   66  -0.090  -0.160        0
  3030  1966-61-33     -2   50   66  -0.090  -0.160        0
  3031  1966-66-19     -2   50   66  -0.090  -0.160        0
  3032  1966-71-49     -2   50   66  -0.090  -0.160        0
  3033  1966-71-365    -2   50   66  -0.090  -0.160        0
  3034  1972-71-49      2   50   66  -0.160   0.010        0
  3035  1972-71-365     2   50   66  -0.160   0.010        0
  3036  2036-11-305     1   49   68   0.030   0.410        0
  3037  2035-48-365    -3   49   68   0.030   0.440        0
  3038  2035-56-18     -3   49   68   0.030   0.440        0
  3039  2035-61-54     -3   49   68   0.030   0.440        0
  3040  2035-66-45     -3   49   68   0.030   0.440        0
  3041  2035-71-42     -3   49   68   0.030   0.440        0
  3042  2035-71-365    -3   49   68   0.030   0.440        0
  3043  1999-22-69      2   50   67  -0.470  -0.080        0
  3044  1999-26-349     2   50   67  -0.470  -0.080        0
  3045  1999-32-73      2   50   67  -0.470  -0.080        0
  3046  1999-42-363     2   50   67  -0.470  -0.080        0
  3047  1999-48-357     2   50   67  -0.470  -0.080        0
  3048  1999-55-353     2   50   67  -0.470  -0.080        0
  3049  1999-60-309     2   50   67  -0.470  -0.080        0
  3050  1999-66-28      2   50   67  -0.470  -0.080        0
  3051  1999-71-42      2   50   67  -0.470  -0.080        0
  3052  1999-71-365     2   50   67  -0.470  -0.080        0
  3053  1957-12-66      1   50   67   0.030   0.180        0
  3054  1957-22-79      1   50   67   0.030   0.180        0
  3055  1957-27-3       1   50   67   0.030   0.180        0
  3056  1957-32-60      1   50   67   0.030   0.180        0
  3057  1957-42-363     1   50   67   0.030   0.180        0
  3058  1957-48-357     1   50   67   0.030   0.180        0
  3059  1957-55-353     1   50   67   0.030   0.180        0
  3060  1957-60-306     1   50   67   0.030   0.180        0
  3061  1957-66-19      1   50   67   0.030   0.180        0
  3062  1957-71-42      1   50   67   0.030   0.180        0
  3063  1957-71-365     1   50   67   0.030   0.180        0
  3064  2125-48-306     1   48   70   0.110   0.460        0
  3065  2125-55-321     1   48   70   0.110   0.460        0
  3066  2086-48-274     2   48   70   0.460   0.360        0
  3067  2086-56-48      2   48   70   0.460   0.360        0
  3068  2086-61-47      2   48   70   0.460   0.360        0
  3069  2086-66-26      2   48   70   0.460   0.360        0
  3070  2086-71-14      2   48   70   0.460   0.360        0
  3071  2086-71-365     2   48   70   0.460   0.360        0
  3072  2102-26-349    -2   48   70   0.340  -0.260        0
  3073  2102-48-274    -2   48   70   0.340  -0.260        0
  3074  2102-55-321    -2   48   70   0.340  -0.260        0
  3075  2102-60-319    -2   48   70   0.340  -0.260        0
  3076  2102-66-1      -2   48   70   0.340  -0.260        0
  3077  2102-71-42     -2   48   70   0.340  -0.260        0
  3078  2102-71-365    -2   48   70   0.340  -0.260        0
  3079  2054-39-31     -2   49   70  -0.200  -0.350        0
  3080  2054-48-357    -2   49   70  -0.200  -0.350        0
  3081  2054-55-349    -2   49   70  -0.200  -0.350        0
  3082  2054-61-3      -2   49   70  -0.200  -0.350        0
  3083  2054-66-40     -2   49   70  -0.200  -0.350        0
  3084  2054-71-42     -2   49   70  -0.200  -0.350        0
  3085  2054-71-365    -2   49   70  -0.200  -0.350        0
  3086  2063-22-69      1   49   70  -0.160   0.430        0
  3087  1996-11-86      1   50   69  -0.470   0.450        0
  3088  1997-22-60      1   50   69  -0.470   0.420        0
  3089  1997-32-60      1   50   69  -0.470   0.420        0
  3090  1997-55-349     1   50   69  -0.470   0.420        0
  3091  1997-65-354     1   50   69  -0.470   0.420        0
  3092  1997-71-42      1   50   69  -0.470   0.420        0
  3093  1997-71-365     1   50   69  -0.470   0.420        0
  3094  1949-48-334     1   50   70  -0.010  -0.420        0
  3095  1949-56-17      1   50   70  -0.010  -0.420        0
  3096  1942-56-17     -2   50   70   0.100  -0.450        0
  3097  1942-61-53     -2   50   70   0.100  -0.450        0
  3098  1942-66-19     -2   50   70   0.100  -0.450        0
  3099  1942-71-42     -2   50   70   0.100  -0.450        0
  3100  1942-71-365    -2   50   70   0.100  -0.450        0
  3101  1943-33-314     2   50   68   0.100  -0.110        0
  3102  2078-65-355     2   49   72  -0.390   0.470        0
  3103  2078-71-42      2   49   72  -0.390   0.470        0
  3104  2078-71-365     2   49   72  -0.390   0.470        0
  3105  2072-16-364     1   49   72  -0.390  -0.180        0
  3106  2072-27-10      1   49   72  -0.390  -0.180        0
  3107  2030-42-362    -2   49   72   0.070   0.380        0
  3108  2030-48-357    -2   49   72   0.070   0.380        0
  3109  2030-55-348    -2   49   72   0.070   0.380        0
  3110  2030-61-3      -2   49   72   0.070   0.380        0
  3111  2030-65-355    -2   49   72   0.070   0.380        0
  3112  2030-71-42     -2   49   72   0.070   0.380        0
  3113  2030-71-365    -2   49   72   0.070   0.380        0
  3114  2082-22-32     -2   48   71   0.490   0.170        0
  3115  2081-8-101      2   48   71   0.460   0.340        0
  3116  2081-12-109     2   48   71   0.460   0.340        0
  3117  2081-22-68      2   48   71   0.460   0.340        0
  3118  2081-42-364     2   48   71   0.460   0.340        0
  3119  2081-56-18      2   48   71   0.460   0.340        0
  3120  2081-71-13      2   48   71   0.460   0.340        0
  3121  2081-71-365     2   48   71   0.460   0.340        0
  3122  2101-8-51       1   48   71   0.340  -0.120        0
  3123  2101-11-86      1   48   71   0.340  -0.120        0
  3124  2101-22-32      1   48   71   0.340  -0.120        0
  3125  2101-27-10      1   48   71   0.340  -0.120        0
  3126  1986-27-81     -2   50   71  -0.320   0.010        0
  3127  1986-42-362    -2   50   71  -0.320   0.010        0
  3128  1986-48-334    -2   50   71  -0.320   0.010        0
  3129  1986-55-321    -2   50   71  -0.320   0.010        0
  3130  1986-61-47     -2   50   71  -0.320   0.010        0
  3131  1986-66-32     -2   50   71  -0.320   0.010        0
  3132  1986-71-14     -2   50   71  -0.320   0.010        0
  3133  1986-71-42     -2   50   71  -0.320   0.010        0
  3134  1986-71-365    -2   50   71  -0.320   0.010        0
  3135  1986-71-365    -2   50   71  -0.320   0.010        0
  3136  1956-32-83      1   50   72   0.020  -0.300        0
  3137  1956-37-34      1   50   72   0.020  -0.300        0
  3138  1948-48-274    -2   50   72   0.060   0.480        0
  3139  2117-8-182      2   48   75   0.220  -0.480        0
  3140  2093-66-26     -2   49   75  -0.470  -0.480        0
  3141  2071-16-364     2   49   73  -0.390  -0.100        0
  3142  2053-56-33      1   49   73  -0.200  -0.460        0
  3143  2053-65-355     1   49   73  -0.200  -0.460        0
  3144  2053-71-43      1   49   73  -0.200  -0.460        0
  3145  2053-71-365     1   49   73  -0.200  -0.460        0
  3146  2046-61-3       1   49   73  -0.090  -0.200        0
  3147  2046-65-355     1   49   73  -0.090  -0.200        0
  3148  2046-71-49      1   49   73  -0.090  -0.200        0
  3149  2046-71-365     1   49   73  -0.090  -0.200        0
  3150  2029-66-45      1   49   73   0.100  -0.390        0
  3151  2029-71-43      1   49   73   0.100  -0.390        0
  3152  2029-71-365     1   49   73   0.100  -0.390        0
  3153  2026-71-43      1   49   73   0.100  -0.170        0
  3154  2026-71-365     1   49   73   0.100  -0.170        0
  3155  2028-71-43     -2   49   73   0.100  -0.130        0
  3156  2028-71-365    -2   49   73   0.100  -0.130        0
  3157  2048-56-33      2   49   73  -0.160   0.450        0
  3158  2048-65-355     2   49   73  -0.160   0.450        0
  3159  2048-71-49      2   49   73  -0.160   0.450        0
  3160  2048-71-365     2   49   73  -0.160   0.450        0
  3161  2049-55-347     2   49   73  -0.160   0.290        0
  3162  2049-65-355     2   49   73  -0.160   0.290        0
  3163  2049-71-43      2   49   73  -0.160   0.290        0
  3164  2049-71-365     2   49   73  -0.160   0.290        0
  3165  1995-22-69      1   50   73  -0.480   0.000        0
  3166  1995-26-280     1   50   73  -0.480   0.000        0
  3167  1995-42-355     1   50   73  -0.480   0.000        0
  3168  1995-48-357     1   50   73  -0.480   0.000        0
  3169  1995-56-17      1   50   73  -0.480   0.000        0
  3170  1995-61-3       1   50   73  -0.480   0.000        0
  3171  1995-65-355     1   50   73  -0.480   0.000        0
  3172  1995-71-43      1   50   73  -0.480   0.000        0
  3173  1995-71-365     1   50   73  -0.480   0.000        0
  3174  1947-22-79      1   50   73   0.060   0.000        0
  3175  1947-26-349     1   50   73   0.060   0.000        0
  3176  1947-32-73      1   50   73   0.060   0.000        0
  3177  1947-39-31      1   50   73   0.060   0.000        0
  3178  1947-48-355     1   50   73   0.060   0.000        0
  3179  1947-55-348     1   50   73   0.060   0.000        0
  3180  1947-61-3       1   50   73   0.060   0.000        0
  3181  1947-66-1       1   50   73   0.060   0.000        0
  3182  1947-71-43      1   50   73   0.060   0.000        0
  3183  1947-71-365     1   50   73   0.060   0.000        0
  3184  1985-56-25     -2   50   74  -0.320  -0.420        0
  3185  1985-66-33     -2   50   74  -0.320  -0.420        0
  3186  1985-71-42     -2   50   74  -0.320  -0.420        0
  3187  2017-42-363    -2   50   73  -0.360   0.130        0
  3188  2017-48-337    -2   50   73  -0.360   0.130        0
  3189  2017-56-24     -2   50   73  -0.360   0.130        0
  3190  2017-61-55     -2   50   73  -0.360   0.130        0
  3191  2017-66-24     -2   50   73  -0.360   0.130        0
  3192  2017-71-42     -2   50   73  -0.360   0.130        0
  3193  1941-16-364     1   50   75   0.100  -0.410        0
  3194  2339-1-365      2   46   75   0.080   0.460        0
  3195  2339-12-113     2   46   75   0.080   0.460        0
  3196  2339-22-74      2   46   75   0.080   0.460        0
  3197  2435-11-80      2   45   78  -0.460  -0.330        0
  3198  2435-22-72      2   45   78  -0.460  -0.330        0
  3199  2443-48-336     2   45   78  -0.420  -0.230        0
  3200  2443-56-20      2   45   78  -0.420  -0.230        0
  3201  2443-61-54      2   45   78  -0.420  -0.230        0
  3202  2443-66-24      2   45   78  -0.420  -0.230        0
  3203  2443-71-42      2   45   78  -0.420  -0.230        0
  3204  2379-22-74      2   46   82  -0.470  -0.490        0
  3205  2379-42-356     2   46   82  -0.470  -0.490        0
  3206  2379-48-336     2   46   82  -0.470  -0.490        0
  3207  2379-56-19      2   46   82  -0.470  -0.490        0
  3208  2379-61-55      2   46   82  -0.470  -0.490        0
  3209  2379-66-27      2   46   82  -0.470  -0.490        0
  3210  2379-71-42      2   46   82  -0.470  -0.490        0
  3211  2375-42-357     2   46   81  -0.430   0.410        0
  3212  2375-48-350     2   46   81  -0.430   0.410        0
  3213  2375-55-348     2   46   81  -0.430   0.410        0
  3214  2375-61-48      2   46   81  -0.430   0.410        0
  3215  2375-65-350     2   46   81  -0.430   0.410        0
  3216  2375-71-55      2   46   81  -0.430   0.410        0
  3217  2375-71-365     2   46   81  -0.430   0.410        0
  3218  2338-22-74      2   46   81   0.070   0.180        0
  3219  2338-48-355     2   46   81   0.070   0.180        0
  3220  2338-56-5       2   46   81   0.070   0.180        0
  3221  2338-61-48      2   46   81   0.070   0.180        0
  3222  2338-65-350     2   46   81   0.070   0.180        0
  3223  2338-71-55      2   46   81   0.070   0.180        0
  3224  2338-71-365     2   46   81   0.070   0.180        0
  3225  2205-22-74      3   47   85   0.440   0.250        0
  3226  2200-22-85      3   47   86   0.480  -0.490        0
  3227  2189-61-55      3   48   86  -0.370   0.420        0
  3228  2173-61-60      2   48   84  -0.250  -0.080        0
  3229  2323-22-74      2   46   81   0.220   0.090        0
  3230  2193-48-336     1   48   81  -0.400  -0.270        0
  3231  2193-56-19      1   48   81  -0.400  -0.270        0
  3232  2193-61-55      1   48   81  -0.400  -0.270        0
  3233  2193-66-27      1   48   81  -0.400  -0.270        0
  3234  2193-71-42      1   48   81  -0.400  -0.270        0
  3235  2100-12-113     2   48   82   0.090   0.160        0
  3236  2100-22-75      2   48   82   0.090   0.160        0
  3237  2100-42-357     2   48   82   0.090   0.160        0
  3238  2100-48-336     2   48   82   0.090   0.160        0
  3239  2100-55-347     2   48   82   0.090   0.160        0
  3240  2100-61-48      2   48   82   0.090   0.160        0
  3241  2100-65-356     2   48   82   0.090   0.160        0
  3242  2100-71-42      2   48   82   0.090   0.160        0
  3243  2100-71-54      2   48   82   0.090   0.160        0
  3244  2100-71-365     2   48   82   0.090   0.160        0
  3245  2324-27-11      2   46   80   0.220   0.370        0
  3246  2324-38-91      2   46   80   0.220   0.370        0
  3247  2324-42-356     2   46   80   0.220   0.370        0
  3248  2324-56-20      2   46   80   0.220   0.370        0
  3249  2324-66-28      2   46   80   0.220   0.370        0
  3250  2324-71-63      2   46   80   0.220   0.370        0
  3251  2285-22-74      2   46   80   0.490   0.010        0
  3252  2285-32-67      2   46   80   0.490   0.010        0
  3253  2285-38-60      2   46   80   0.490   0.010        0
  3254  2285-71-63      2   46   80   0.490   0.010        0
  3255  2119-42-357     1   48   80   0.180  -0.210        0
  3256  2119-48-355     1   48   80   0.180  -0.210        0
  3257  2119-55-348     1   48   80   0.180  -0.210        0
  3258  2119-61-49      1   48   80   0.180  -0.210        0
  3259  2119-71-55      1   48   80   0.180  -0.210        0
  3260  2119-71-365     1   48   80   0.180  -0.210        0
  3261  2184-33-274    -2   48   81  -0.320  -0.400        0
  3262  2179-33-26      2   48   77  -0.390  -0.040        0
  3263  2179-48-337     2   48   77  -0.390  -0.040        0
  3264  2179-56-20      2   48   77  -0.390  -0.040        0
  3265  2179-66-28      2   48   77  -0.390  -0.040        0
  3266  2297-42-355     2   46   77   0.420  -0.500        0
  3267  2297-48-336     2   46   77   0.420  -0.500        0
  3268  2297-56-20      2   46   77   0.420  -0.500        0
  3269  2297-61-54      2   46   77   0.420  -0.500        0
  3270  2297-66-21      2   46   77   0.420  -0.500        0
  3271  2297-71-41      2   46   77   0.420  -0.500        0
  3272  2185-42-357     2   48   76  -0.430   0.020        0
  3273  2185-48-355     2   48   76  -0.430   0.020        0
  3274  2185-55-347     2   48   76  -0.430   0.020        0
  3275  2185-66-45      2   48   76  -0.430   0.020        0
  3276  2185-71-344     2   48   76  -0.430   0.020        0
  3277  2134-16-361     2   48   76   0.030   0.310        0
  3278  2134-22-32      2   48   76   0.030   0.310        0
  3279  2134-27-11      2   48   76   0.030   0.310        0
  3280  2134-48-357     2   48   76   0.030   0.310        0
  3281  2134-55-347     2   48   76   0.030   0.310        0
  3282  2134-66-45      2   48   76   0.030   0.310        0
  3283  2134-71-344     2   48   76   0.030   0.310        0
  3284  2091-61-55      1   48   76   0.410  -0.270        0
  3285  2091-66-26      1   48   76   0.410  -0.270        0
  3286  2091-71-55      1   48   76   0.410  -0.270        0
  3287  2097-48-337     1   48   74   0.410  -0.160        0
  3288  2097-56-23      1   48   74   0.410  -0.160        0
  3289  2097-66-26      1   48   74   0.410  -0.160        0
  3290  2097-71-55      1   48   74   0.410  -0.160        0
  3291  2068-12-281     1   49   77  -0.360  -0.460        0
  3292  2070-48-357     1   49   77  -0.400  -0.460        0
  3293  2070-55-348     1   49   77  -0.400  -0.460        0
  3294  2070-60-348     1   49   77  -0.400  -0.460        0
  3295  2070-66-1       1   49   77  -0.400  -0.460        0
  3296  2070-71-365     1   49   77  -0.400  -0.460        0
  3297  2027-39-31      1   49   75   0.100   0.400        0
  3298  2025-66-26      1   49   75   0.220   0.340        0
  3299  2025-71-55      1   49   75   0.220   0.340        0
  3300  2010-32-67      1   49   75   0.370  -0.380        0
  3301  1954-32-67      1   50   76  -0.140   0.480        0
  3302  1954-48-355     1   50   76  -0.140   0.480        0
  3303  1954-55-347     1   50   76  -0.140   0.480        0
  3304  1954-66-45      1   50   76  -0.140   0.480        0
  3305  1954-71-344     1   50   76  -0.140   0.480        0
  3306  1963-32-85      1   50   76  -0.020   0.150        0
  3307  1963-42-357     1   50   76  -0.020   0.150        0
  3308  1963-48-355     1   50   76  -0.020   0.150        0
  3309  1963-55-348     1   50   76  -0.020   0.150        0
  3310  1963-61-49      1   50   76  -0.020   0.150        0
  3311  1963-65-356     1   50   76  -0.020   0.150        0
  3312  1963-71-365     1   50   76  -0.020   0.150        0
  3313  2090-27-11      1   48   78   0.410   0.030        0
  3314  2065-66-45      2   49   78  -0.360   0.000        0
  3315  2065-71-365     2   49   78  -0.360   0.000        0
  3316  2003-71-365     1   49   78   0.480   0.430        0
  3317  1984-42-355     1   50   78  -0.330   0.360        0
  3318  1984-48-336     1   50   78  -0.330   0.360        0
  3319  2116-65-350     2   48   80   0.210  -0.310        0
  3320  2047-56-19      1   49   80  -0.170  -0.270        0
  3321  2047-61-55      1   49   80  -0.170  -0.270        0
  3322  2047-66-21      1   49   80  -0.170  -0.270        0
  3323  2044-56-19      1   49   79   0.020   0.170        0
  3324  2044-61-55      1   49   79   0.020   0.170        0
  3325  2044-66-21      1   49   79   0.020   0.170        0
  3326  2044-71-41      1   49   79   0.020   0.170        0
  3327  2018-34-212    -2   49   80   0.210  -0.470        0
  3328  2012-1-52       1   49   79   0.330  -0.220        0
  3329  2012-42-335     1   49   79   0.330  -0.220        0
  3330  2012-48-355     1   49   79   0.330  -0.220        0
  3331  2012-55-348     1   49   79   0.330  -0.220        0
  3332  2012-66-1       1   49   79   0.330  -0.220        0
  3333  2012-71-365     1   49   79   0.330  -0.220        0
  3334  1979-56-23      1   50   79  -0.290   0.170        0
  3335  1979-61-55      1   50   79  -0.290   0.170        0
  3336  2002-16-361     2   49   80   0.480   0.210        0
  3337  2002-27-12      2   49   80   0.480   0.210        0
  3338  1961-56-23      2   50   80   0.010  -0.340        0
  3339  1961-66-26      2   50   80   0.010  -0.340        0
  3340  1961-71-41      2   50   80   0.010  -0.340        0
  3341  2080-42-356     2   48   82   0.480   0.100        0
  3342  2080-48-350     2   48   82   0.480   0.100        0
  3343  2080-55-347     2   48   82   0.480   0.100        0
  3344  2080-66-45      2   48   82   0.480   0.100        0
  3345  2042-55-347     2   49   83  -0.030  -0.280        0
  3346  2042-65-356     2   49   83  -0.030  -0.280        0
  3347  2042-71-54      2   49   83  -0.030  -0.280        0
  3348  2042-71-365     2   49   83  -0.030  -0.280        0
  3349  1964-33-38     -2   50   82  -0.070  -0.290        0
  3350  1976-42-357     2   50   81  -0.260   0.090        0
  3351  1976-48-355     2   50   81  -0.260   0.090        0
  3352  1976-55-348     2   50   81  -0.260   0.090        0
  3353  1976-60-305     2   50   81  -0.260   0.090        0
  3354  1976-66-1       2   50   81  -0.260   0.090        0
  3355  1976-71-55      2   50   81  -0.260   0.090        0
  3356  1976-71-365     2   50   81  -0.260   0.090        0
  3357  1970-42-356     2   50   81  -0.180   0.190        0
  3358  1970-48-336     2   50   81  -0.180   0.190        0
  3359  1970-56-19      2   50   81  -0.180   0.190        0
  3360  2051-43-1       2   49   83  -0.220   0.470        0
  3361  2051-65-356     2   49   83  -0.220   0.470        0
  3362  2051-71-54      2   49   83  -0.220   0.470        0
  3363  2051-71-365     2   49   83  -0.220   0.470        0
  3364  1973-11-214     2   50   83  -0.220   0.300        0
  3365  1969-11-190     2   50   83  -0.190   0.340        0
  3366  1946-66-5       1   50   84   0.000   0.350        0
  3367  1946-71-22      1   50   84   0.000   0.350        0
  3368  1946-71-365     1   50   84   0.000   0.350        0
  3369  1967-27-87     -2   50   84   0.040   0.410        0
  3370  1967-42-356     2   50   84   0.040   0.410        0
  3371  1967-48-350     2   50   84   0.040   0.410        0
  3372  1967-55-347     2   50   84   0.040   0.410        0
  3373  1967-66-5      -2   50   84   0.040   0.410        0
  3374  1967-71-22     -2   50   84   0.040   0.410        0
  3375  1967-71-365    -2   50   84   0.040   0.410        0
  3376  1939-42-356    -2   50   84   0.040   0.410        0
  3377  1939-48-350    -2   50   84   0.040   0.410        0
  3378  1939-55-347    -2   50   84   0.040   0.410        0
  3379  1939-60-356    -2   50   84   0.040   0.410        0
  3380  1939-71-22      2   50   84   0.040   0.410        0
  3381  1939-71-365     2   50   84   0.040   0.410        0
  3382  1975-16-361     1   50   85  -0.270   0.190        0
  3383  1975-27-12      1   50   85  -0.270   0.190        0
  3384  1945-56-25      2   50   85   0.040   0.190        0
  3385  1945-61-54      2   50   85   0.040   0.190        0
  3386  1945-66-27      2   50   85   0.040   0.190        0
  3387  1945-71-41      2   50   85   0.040   0.190        0
  3388  1711-42-352     3   52   24   0.470   0.340        0
  3389  1711-48-350     3   52   24   0.470   0.340        0
  3390  1711-55-354     3   52   24   0.470   0.340        0
  3391  1711-61-21      3   52   24   0.470   0.340        0
  3392  1711-66-39      3   52   24   0.470   0.340        0
  3393  1711-71-7       3   52   24   0.470   0.340        0
  3394  1711-71-365     3   52   24   0.470   0.340        0
  3395  1555-27-24     -2   53   25  -0.180  -0.040        0
  3396  1555-31-348    -2   53   25  -0.180  -0.040        0
  3397  1555-37-341    -2   53   25  -0.180  -0.040        0
  3398  1555-48-348    -2   53   25  -0.180  -0.040        0
  3399  1555-56-27     -2   53   25  -0.180  -0.040        0
  3400  1555-60-319    -2   53   25  -0.180  -0.040        0
  3401  1555-65-301    -2   53   25  -0.180  -0.040        0
  3402  1555-71-11     -2   53   25  -0.180  -0.040        0
  3403  1555-71-365    -2   53   25  -0.240  -0.030        0
  3404  1428-11-1       3   58   24   0.140  -0.230        0
  3405  1428-17-11      3   58   24   0.140  -0.230        0
  3406  1428-22-12      3   58   24   0.140  -0.230        0
  3407  1428-32-85      3   58   24   0.140  -0.230        0
  3408  1383-1-106      3   60   25  -0.370   0.300        0
  3409  1383-7-337      3   60   25  -0.370   0.300        0
  3410  1383-12-361     3   60   25  -0.370   0.300        0
  3411  1819-38-13     -2   52   31  -0.470   0.240        0
  3412  1819-42-352    -2   52   31  -0.470   0.240        0
  3413  1819-55-354    -2   52   31  -0.470   0.240        0
  3414  1820-71-12      2   52   30  -0.470   0.460        0
  3415  1820-71-365     2   52   30  -0.470   0.460        0
  3416  1748-17-6      -2   52   31  -0.010   0.400        0
  3417  1748-21-335    -2   52   31  -0.010   0.400        0
  3418  1748-48-348    -2   52   31  -0.010   0.400        0
  3419  1748-60-305    -2   52   31  -0.010   0.400        0
  3420  1748-66-1      -2   52   31  -0.010   0.400        0
  3421  1748-71-8      -2   52   31  -0.010   0.400        0
  3422  1748-71-365    -2   52   31  -0.010   0.400        0
  3423  1903-71-365     2   51   29  -0.430   0.390        0
  3424  1862-71-365     2   51   29   0.110  -0.490        0
  3425  1861-65-364     2   51   29   0.110   0.030        0
  3426  1861-71-365     2   51   29   0.110   0.030        0
  3427  1833-71-365     3   51   29   0.410  -0.070        0
  3428  1770-71-365     3   52   29  -0.200   0.320        0
  3429  1758-71-365     2   52   29  -0.170  -0.490        0
  3430  1709-22-38     -2   52   29   0.450  -0.270        0
  3431  1709-42-352    -2   52   29   0.450  -0.270        0
  3432  1709-55-354    -2   52   29   0.450  -0.270        0
  3433  1709-65-344    -2   52   29   0.450  -0.270        0
  3434  1709-71-365    -2   52   29   0.450  -0.270        0
  3435  1700-71-365     3   52   29   0.410  -0.070        0
  3436  1828-71-365     3   51   30   0.450  -0.190        0
  3437  1698-71-365     3   52   30   0.450   0.360        0
  3438  1883-65-336     3   51   28  -0.120  -0.140        0
  3439  1883-71-365     3   51   28  -0.120  -0.140        0
  3440  1838-71-365     3   51   27   0.370  -0.220        0
  3441  1805-71-365     2   52   26  -0.400   0.430        0
  3442  1702-16-354    -2   52   27   0.370  -0.120        0
  3443  1702-42-352    -2   52   27   0.370  -0.120        0
  3444  1702-48-349    -2   52   27   0.370  -0.120        0
  3445  1702-55-354    -2   52   27   0.370  -0.120        0
  3446  1702-61-31     -2   52   27   0.370  -0.120        0
  3447  1702-65-344    -2   52   27   0.370  -0.120        0
  3448  1702-71-365     2   52   27   0.370  -0.120        0
  3449  1704-71-365     3   52   27   0.360  -0.380        0
  3450  1829-71-365     3   51   28   0.450  -0.240        0
  3451  1710-17-6      -2   52   27   0.410   0.470        0
  3452  1710-42-352    -2   52   27   0.410   0.470        0
  3453  1710-48-349    -2   52   27   0.410   0.470        0
  3454  1710-55-354    -2   52   27   0.410   0.470        0
  3455  1710-61-31     -2   52   27   0.410   0.470        0
  3456  1710-65-344    -2   52   27   0.410   0.470        0
  3457  1710-71-365     3   52   27   0.410   0.470        0
  3458  1703-71-365     2   52   28   0.370  -0.340        0
  3459  1663-12-305    -2   53   27  -0.210   0.370        0
  3460  1663-42-352    -2   53   27  -0.210   0.370        0
  3461  1663-48-349    -2   53   27  -0.210   0.370        0
  3462  1663-55-354    -2   53   27  -0.210   0.370        0
  3463  1663-61-31     -2   53   27  -0.210   0.370        0
  3464  1663-65-338    -2   53   27  -0.210   0.370        0
  3465  1663-71-365     3   53   27  -0.210   0.370        0
  3466  1667-71-365     3   53   27  -0.140   0.170        0
  3467  1686-71-365     3   53   30  -0.470  -0.160        0
  3468  1653-71-365     2   53   29   0.060   0.420        0
  3469  1634-71-365     3   53   29   0.400   0.380        0
  3470  1637-71-365     3   53   30   0.370   0.330        0
  3471  1635-71-365     3   53   29   0.400  -0.500        0
  3472  1584-17-6      -2   54   29   0.400  -0.500        0
  3473  1584-22-38     -2   54   29   0.400  -0.500        0
  3474  1584-27-27     -2   54   29   0.400  -0.500        0
  3475  1584-32-85     -2   54   29   0.400  -0.500        0
  3476  1584-37-34     -2   54   29   0.400  -0.500        0
  3477  1584-42-352    -2   54   29   0.400  -0.500        0
  3478  1584-48-348    -2   54   29   0.400  -0.500        0
  3479  1584-55-354    -2   54   29   0.400  -0.500        0
  3480  1584-60-323    -2   54   29   0.400  -0.500        0
  3481  1584-65-344    -2   54   29   0.400  -0.500        0
  3482  1584-71-365    -2   54   29   0.400  -0.500        0
  3483  1585-71-365     2   54   28   0.400   0.470        0
  3484  1592-71-365     2   54   29   0.320   0.380        0
  3485  1591-71-365     2   54   30   0.320  -0.490        0
  3486  1590-71-365     3   54   30   0.320   0.260        0
  3487  1650-71-365     2   53   31   0.100  -0.120        0
  3488  1684-48-275     3   52   34   0.500  -0.030        0
  3489  1684-66-20      3   52   34   0.500  -0.030        0
  3490  1685-48-275     3   52   34   0.500  -0.030        0
  3491  1685-66-20      3   52   34   0.500  -0.030        0
  3492  1496-21-355     2   56   37   0.400  -0.500        0
  3493  1496-27-27      2   56   37   0.400  -0.500        0
  3494  1496-32-85      2   56   37   0.400  -0.500        0
  3495  1496-36-91      2   56   37   0.400  -0.500        0
  3496  1496-56-19      2   56   37   0.400  -0.500        0
  3497  1491-56-19      2   56   37   0.440  -0.500        0
  3498  1501-16-309     3   56   38   0.290   0.320        0
  3499  1497-48-300     3   56   36   0.210   0.010        0
  3500  1497-55-318     3   56   36   0.210   0.010        0
  3501  1497-60-313     3   56   36   0.210   0.010        0
  3502  1497-65-364     3   56   36   0.210   0.010        0
  3503  1497-71-350     3   56   36   0.210   0.010        0
  3504  1498-48-300     2   56   36   0.210   0.010        0
  3505  1498-55-318     2   56   36   0.210   0.010        0
  3506  1498-60-313     2   56   36   0.210   0.010        0
  3507  1498-65-364     2   56   36   0.210   0.010        0
  3508  1498-71-350     2   56   36   0.210   0.010        0
  3509  1442-36-1      -2   58   32  -0.420   0.500        0
  3510  1442-42-349    -2   58   32  -0.420   0.500        0
  3511  1442-48-349    -2   58   32  -0.420   0.500        0
  3512  1442-55-353    -2   58   32  -0.420   0.500        0
  3513  1442-61-21     -2   58   32  -0.420   0.500        0
  3514  1473-10-213     3   57   38  -0.170   0.320        0
  3515  1407-22-38     -2   59   34  -0.080   0.380        0
  3516  1407-42-349    -2   59   34  -0.080   0.380        0
  3517  1407-48-349    -2   59   34  -0.080   0.380        0
  3518  1407-55-353    -2   59   34  -0.080   0.380        0
  3519  1407-61-21     -2   59   34  -0.080   0.380        0
  3520  1407-66-34     -2   59   34  -0.080   0.380        0
  3521  1407-71-365    -2   59   34  -0.080   0.380        0
  3522  1412-71-365     1   59   34  -0.270   0.380        0
  3523  1393-38-335     3   59   33   0.420  -0.470        0
  3524  1393-42-349     3   59   33   0.420  -0.470        0
  3525  1393-48-349     3   59   33   0.420  -0.470        0
  3526  1393-55-353     3   59   33   0.420  -0.470        0
  3527  1393-71-365     3   59   33   0.420  -0.470        0
  3528  1376-36-78     -2   60   33   0.190   0.370        0
  3529  1376-48-349    -2   60   33   0.190   0.370        0
  3530  1376-61-21     -2   60   33   0.190   0.370        0
  3531  1376-66-34     -2   60   33   0.190   0.370        0
  3532  1376-71-56     -2   60   33   0.190   0.370        0
  3533  1376-71-365     3   60   33   0.190   0.370        0
  3534  1361-71-362     2   61   34   0.220   0.470        0
  3535  1362-71-362     2   61   34   0.220   0.470        0
  3536  1421-71-362     2   60   32  -0.160   0.130        0
  3537  1403-66-34      3   59   31   0.150  -0.260        0
  3538  1403-71-56      3   59   31   0.150  -0.260        0
  3539  1403-71-365     3   59   31   0.150  -0.260        0
  3540  1388-71-362     2   60   31  -0.160  -0.040        0
  3541  1364-17-12      2   60   31   0.410   0.480        0
  3542  1364-38-335     2   60   31   0.410   0.480        0
  3543  1364-42-349     2   60   31   0.410   0.480        0
  3544  1364-55-353     2   60   31   0.410   0.480        0
  3545  1364-66-34      2   60   31   0.410   0.480        0
  3546  1364-71-365     2   60   31   0.410   0.480        0
  3547  1365-17-12     -2   60   30   0.370   0.310        0
  3548  1365-22-6      -2   60   30   0.370   0.310        0
  3549  1365-27-27     -2   60   30   0.370   0.310        0
  3550  1365-32-85     -2   60   30   0.370   0.310        0
  3551  1365-37-17     -2   60   30   0.370   0.310        0
  3552  1365-42-349    -2   60   30   0.370   0.310        0
  3553  1365-48-349    -2   60   30   0.370   0.310        0
  3554  1365-55-353    -2   60   30   0.370   0.310        0
  3555  1365-60-364    -2   60   30   0.370   0.310        0
  3556  1365-66-1      -2   60   30   0.370   0.310        0
  3557  1365-71-365    -2   60   30   0.370   0.310        0
  3558  1335-71-362     2   61   31   0.210  -0.040        0
  3559  1313-36-114    -2   62   31  -0.480   0.410        0
  3560  1313-42-349    -2   62   31  -0.480   0.410        0
  3561  1313-48-349    -2   62   31  -0.480   0.410        0
  3562  1313-55-353    -2   62   31  -0.480   0.410        0
  3563  1313-61-21     -2   62   31  -0.480   0.410        0
  3564  1313-66-13     -2   62   31  -0.480   0.410        0
  3565  1266-17-12     -2   62   31   0.360  -0.300        0
  3566  1266-38-335    -2   62   31   0.360  -0.300        0
  3567  1266-42-349    -2   62   31   0.360  -0.300        0
  3568  1266-48-349    -2   62   31   0.360  -0.300        0
  3569  1266-56-3      -2   62   31   0.360  -0.300        0
  3570  1266-61-21     -2   62   31   0.360  -0.300        0
  3571  1266-66-12     -2   62   31   0.360  -0.300        0
  3572  1266-71-56     -2   62   31   0.360  -0.300        0
  3573  1266-71-365     2   62   31   0.360  -0.300        0
  3574  1258-71-362     2   63   32  -0.410   0.130        0
  3575  1265-17-12     -2   62   32   0.290  -0.290        0
  3576  1265-38-335    -2   62   32   0.290  -0.290        0
  3577  1265-42-349    -2   62   32   0.290  -0.290        0
  3578  1265-48-349    -2   62   32   0.290  -0.290        0
  3579  1265-55-353    -2   62   32   0.290  -0.290        0
  3580  1265-66-34     -2   62   32   0.290  -0.290        0
  3581  1265-71-56     -2   62   32   0.290  -0.290        0
  3582  1265-71-365    -2   62   32   0.290  -0.290        0
  3583  1336-17-12     -2   61   34  -0.090   0.380        0
  3584  1336-38-335    -2   61   34  -0.090   0.380        0
  3585  1336-42-349    -2   61   34  -0.090   0.380        0
  3586  1336-48-349    -2   61   34  -0.090   0.380        0
  3587  1336-55-353    -2   61   34  -0.090   0.380        0
  3588  1336-71-40     -2   61   34  -0.090   0.380        0
  3589  1336-71-365    -2   61   34  -0.090   0.380        0
  3590  1337-42-349    -2   61   32  -0.090   0.490        0
  3591  1337-55-353    -2   61   32  -0.090   0.490        0
  3592  1337-66-27     -2   61   32  -0.090   0.490        0
  3593  1337-71-365    -2   61   32  -0.090   0.490        0
  3594  1340-36-38     -2   61   32  -0.130   0.490        0
  3595  1340-42-349    -2   61   32  -0.130   0.490        0
  3596  1340-48-349    -2   61   32  -0.130   0.490        0
  3597  1340-55-353    -2   61   32  -0.130   0.490        0
  3598  1340-66-10     -2   61   32  -0.130   0.490        0
  3599  1340-71-56     -2   61   32  -0.130   0.490        0
  3600  1340-71-365    -2   61   32  -0.130   0.490        0
  3601  1264-38-335    -2   62   33   0.250  -0.420        0
  3602  1264-42-349    -2   62   33   0.250  -0.420        0
  3603  1264-71-70     -2   62   33   0.250  -0.420        0
  3604  1264-71-365    -2   62   33   0.250  -0.420        0
  3605  1257-66-33      3   62   33   0.330   0.330        0
  3606  1257-71-56      3   62   33   0.330   0.330        0
  3607  1257-71-365     3   62   33   0.330   0.330        0
  3608  1371-56-31      3   60   39   0.190  -0.230        0
  3609  1371-66-56      3   60   39   0.190  -0.230        0
  3610  1371-71-50      3   60   39   0.190  -0.230        0
  3611  1371-71-365     3   60   39   0.190  -0.230        0
  3612  1370-34-198     2   60   39   0.230   0.130        0
  3613  1370-56-31      2   60   39   0.230   0.130        0
  3614  1370-66-56      2   60   39   0.230   0.130        0
  3615  1370-71-50      2   60   39   0.230   0.130        0
  3616  1370-71-365     2   60   39   0.230   0.130        0
  3617  1849-12-32     -2   51   62   0.290   0.170        0
  3618  1849-17-34     -2   51   62   0.290   0.170        0
  3619  1849-22-1      -2   51   62   0.290   0.170        0
  3620  1847-48-362     2   51   62   0.370   0.140        0
  3621  1847-56-34      2   51   62   0.370   0.140        0
  3622  1847-61-3       2   51   62   0.370   0.140        0
  3623  1847-66-1       2   51   62   0.370   0.140        0
  3624  1847-71-56      2   51   62   0.370   0.140        0
  3625  1847-71-365     2   51   62   0.370   0.140        0
  3626  1742-1-365      1   52   59   0.060  -0.050        0
  3627  1741-1-365      3   52   59   0.060   0.180        0
  3628  1766-1-365      1   52   60  -0.170  -0.080        0
  3629  1848-56-34      2   51   58   0.330   0.270        0
  3630  1848-65-336     1   51   58   0.330   0.270        0
  3631  1848-71-365     1   51   58   0.330   0.270        0
  3632  1901-2-36       2   51   57  -0.390   0.290        0
  3633  1912-1-365      1   50   57   0.450  -0.160        0
  3634  1929-1-365      1   50   57   0.300  -0.100        0
  3635  1902-1-365      1   51   57  -0.390  -0.260        0
  3636  1872-71-68      2   51   57   0.100   0.360        0
  3637  1872-71-365     2   51   57   0.100   0.360        0
  3638  1871-56-34      2   51   57   0.100   0.360        0
  3639  1832-17-37      3   51   57   0.450   0.190        0
  3640  1832-22-1       3   51   57   0.450   0.190        0
  3641  1832-32-49      3   51   57   0.450   0.190        0
  3642  1832-42-362     3   51   57   0.450   0.190        0
  3643  1832-48-362     3   51   57   0.450   0.190        0
  3644  1832-56-34      3   51   57   0.450   0.190        0
  3645  1832-61-3       3   51   57   0.450   0.190        0
  3646  1832-71-21      3   51   57   0.450   0.190        0
  3647  1832-71-365     3   51   57   0.450   0.190        0
  3648  1767-27-40     -2   52   58  -0.320   0.430        0
  3649  1767-42-363    -2   52   58  -0.320   0.430        0
  3650  1767-56-34     -2   52   58  -0.320   0.430        0
  3651  1818-65-336     2   52   58  -0.440  -0.350        0
  3652  1804-71-76      2   52   58  -0.360  -0.350        0
  3653  1804-71-365     2   52   58  -0.360  -0.350        0
  3654  1793-42-362    -2   52   58  -0.170  -0.250        0
  3655  1793-48-334    -2   52   58  -0.170  -0.250        0
  3656  1793-56-34     -2   52   58  -0.170  -0.250        0
  3657  1793-65-336    -2   52   58  -0.170  -0.250        0
  3658  1793-71-21     -2   52   58  -0.170  -0.250        0
  3659  1793-71-365    -2   52   58  -0.170  -0.250        0
  3660  1891-1-365      2   51   56  -0.280  -0.270        0
  3661  1891-11-38      2   51   56  -0.280  -0.270        0
  3662  1891-17-37      2   51   56  -0.280  -0.270        0
  3663  1690-32-32      2   53   59  -0.480   0.370        0
  3664  1690-34-32      2   53   59  -0.480   0.370        0
  3665  1690-42-362     2   53   59  -0.480   0.370        0
  3666  1690-48-362     2   53   59  -0.480   0.370        0
  3667  1690-56-34      2   53   59  -0.480   0.370        0
  3668  1690-61-3       2   53   59  -0.480   0.370        0
  3669  1690-71-21      2   53   59  -0.480   0.370        0
  3670  1690-71-365     2   53   59  -0.480   0.370        0
  3671  1697-56-34      1   52   59   0.480  -0.380        0
  3672  1697-65-336     1   52   59   0.480  -0.380        0
  3673  1697-71-21      1   52   59   0.480  -0.380        0
  3674  1697-71-365     1   52   59   0.480  -0.380        0
  3675  1638-22-30      2   53   60   0.360  -0.370        0
  3676  1638-27-48      2   53   60   0.360  -0.370        0
  3677  1638-32-49      2   53   60   0.360  -0.370        0
  3678  1638-37-49      2   53   60   0.360  -0.370        0
  3679  1638-42-363     2   53   60   0.360  -0.370        0
  3680  1642-1-365      3   53   61   0.250  -0.260        0
  3681  1642-8-48       3   53   61   0.250  -0.260        0
  3682  1626-1-365      3   54   61  -0.300   0.420        0
  3683  1625-26-349    -2   54   62  -0.410  -0.090        0
  3684  1625-32-49     -2   54   62  -0.410  -0.090        0
  3685  1625-42-362    -2   54   62  -0.410  -0.090        0
  3686  1625-48-362    -2   54   62  -0.410  -0.090        0
  3687  1625-56-34     -2   54   62  -0.410  -0.090        0
  3688  1625-61-3      -2   54   62  -0.410  -0.090        0
  3689  1508-12-54     -2   56   61  -0.380  -0.260        0
  3690  1508-17-33     -2   56   61  -0.380  -0.260        0
  3691  1508-22-26     -2   56   61  -0.380  -0.260        0
  3692  1508-27-15     -2   56   61  -0.380  -0.260        0
  3693  1508-32-49     -2   56   61  -0.380  -0.260        0
  3694  1508-43-5      -2   56   61  -0.380  -0.260        0
  3695  1508-48-364    -2   56   61  -0.380  -0.260        0
  3696  1508-56-34     -2   56   61  -0.380  -0.260        0
  3697  1508-61-3      -2   56   61  -0.380  -0.260        0
  3698  1508-71-49     -2   56   61  -0.380  -0.260        0
  3699  1508-71-365    -2   56   61  -0.380  -0.260        0
  3700  1479-43-5      -2   57   60  -0.230  -0.040        0
  3701  1479-48-364    -2   57   60  -0.230  -0.040        0
  3702  1479-56-34     -2   57   60  -0.230  -0.040        0
  3703  1479-60-363    -2   57   60  -0.230  -0.040        0
  3704  1479-71-70     -2   57   60  -0.230  -0.040        0
  3705  1479-71-365    -2   57   60  -0.230  -0.040        0
  3706  1462-42-364     1   57   60   0.190  -0.170        0
  3707  1462-48-334     1   57   60   0.190  -0.170        0
  3708  1462-56-16      1   57   60   0.190  -0.170        0
  3709  1468-1-365      1   57   60   0.030   0.220        0
  3710  1471-11-278    -2   57   59  -0.270   0.440        0
  3711  1471-17-33     -2   57   59  -0.270   0.440        0
  3712  1471-22-26     -2   57   59  -0.270   0.440        0
  3713  1471-26-349    -2   57   59  -0.270   0.440        0
  3714  1471-43-5      -2   57   59  -0.270   0.440        0
  3715  1471-48-364     2   57   59  -0.270   0.440        0
  3716  1471-65-336    -2   57   59  -0.270   0.440        0
  3717  1471-71-70     -2   57   59  -0.270   0.440        0
  3718  1471-71-365    -2   57   59  -0.270   0.440        0
  3719  1461-12-54     -2   57   62   0.260   0.500        0
  3720  1461-17-44     -2   57   62   0.260   0.500        0
  3721  1461-22-30     -2   57   62   0.260   0.500        0
  3722  1461-27-59     -2   57   62   0.260   0.500        0
  3723  1461-42-363    -2   57   62   0.260   0.500        0
  3724  1461-48-336    -2   57   62   0.260   0.500        0
  3725  1461-56-34     -2   57   62   0.260   0.500        0
  3726  1461-60-363    -2   57   62   0.260   0.500        0
  3727  1461-66-59     -2   57   62   0.260   0.500        0
  3728  1461-71-70     -2   57   62   0.260   0.500        0
  3729  1461-71-365    -2   57   62   0.260   0.500        0
  3730  1387-42-362    -2   60   61  -0.480  -0.030        0
  3731  1387-49-2      -2   60   61  -0.480  -0.030        0
  3732  1387-56-33     -2   60   61  -0.480  -0.030        0
  3733  1387-60-363    -2   60   61  -0.480  -0.030        0
  3734  1387-66-59     -2   60   61  -0.480  -0.030        0
  3735  1387-71-70     -2   60   61  -0.480  -0.030        0
  3736  1387-71-365    -2   60   61  -0.480  -0.030        0
  3737  1391-17-41     -3   59   62   0.250   0.400        0
  3738  1391-22-31     -3   59   62   0.250   0.400        0
  3739  1391-42-362    -2   59   62   0.250   0.400        0
  3740  1391-48-338    -2   59   62   0.250   0.400        0
  3741  1391-56-16     -2   59   62   0.250   0.400        0
  3742  1391-61-59     -2   59   62   0.250   0.400        0
  3743  1391-66-27     -2   59   62   0.250   0.400        0
  3744  1391-71-56     -2   59   62   0.250   0.400        0
  3745  1386-17-41     -3   59   62   0.290   0.370        0
  3746  1386-22-31     -3   59   62   0.290   0.370        0
  3747  1386-42-362    -2   59   62   0.290   0.370        0
  3748  1386-48-337    -2   59   62   0.290   0.370        0
  3749  1386-56-16     -2   59   62   0.290   0.370        0
  3750  1398-48-335    -2   59   62   0.290   0.370        0
  3751  1401-2-1        2   59   60   0.100  -0.430        0
  3752  1401-12-53      2   59   60   0.100  -0.430        0
  3753  1401-17-60      2   59   60   0.100  -0.430        0
  3754  1401-22-26      2   59   60   0.100  -0.430        0
  3755  1427-17-39      1   58   59   0.410  -0.180        0
  3756  1427-22-31      1   58   59   0.410  -0.180        0
  3757  1427-42-362     1   58   59   0.410  -0.180        0
  3758  1427-48-364     1   58   59   0.410  -0.180        0
  3759  1427-56-33      1   58   59   0.410  -0.180        0
  3760  1378-42-364     1   60   59  -0.020   0.110        0
  3761  1400-1-32       2   59   60   0.140  -0.400        0
  3762  1400-12-53      2   59   60   0.140  -0.400        0
  3763  1400-17-60      2   59   60   0.140  -0.400        0
  3764  1400-22-26      2   59   60   0.140  -0.400        0
  3765  1400-27-48      2   59   60   0.140  -0.400        0
  3766  1400-36-3       2   59   60   0.140  -0.400        0
  3767  1400-43-5       2   59   60   0.140  -0.400        0
  3768  1400-48-364     2   59   60   0.140  -0.400        0
  3769  1400-56-33      2   59   60   0.140  -0.400        0
  3770  1400-60-363     2   59   60   0.140  -0.400        0
  3771  1400-71-365     2   59   60   0.140  -0.400        0
  3772  1405-7-308      2   59   59   0.140  -0.380        0
  3773  1405-10-34      2   59   59   0.140  -0.380        0
  3774  1405-43-5       2   59   59   0.140  -0.380        0
  3775  1405-48-364     2   59   59   0.140  -0.380        0
  3776  1405-56-33      2   59   59   0.140  -0.380        0
  3777  1405-66-13      2   59   59   0.140  -0.380        0
  3778  1405-71-365     2   59   59   0.140  -0.380        0
  3779  1349-17-41     -2   61   58  -0.330   0.070        0
  3780  1349-22-30     -2   61   58  -0.330   0.070        0
  3781  1329-1-274      2   61   58   0.170   0.170        0
  3782  1329-17-41      2   61   58   0.170   0.170        0
  3783  1329-22-31      2   61   58   0.170   0.170        0
  3784  1329-42-364     2   61   58   0.170   0.170        0
  3785  1329-56-16      2   61   58   0.170   0.170        0
  3786  1329-66-26      2   61   58   0.170   0.170        0
  3787  1282-1-277      1   62   58   0.080  -0.030        0
  3788  1283-1-309      2   62   58   0.200   0.330        0
  3789  1283-6-340      2   62   58   0.200   0.330        0
  3790  1283-11-350     2   62   58   0.200   0.330        0
  3791  1283-16-301     2   62   58   0.200   0.330        0
  3792  1283-22-30      2   62   58   0.200   0.330        0
  3793  1283-27-10      2   62   58   0.200   0.330        0
  3794  1283-35-345     2   62   58   0.200   0.330        0
  3795  1274-6-288      2   62   59   0.200  -0.440        0
  3796  1274-12-54      2   62   59   0.200  -0.440        0
  3797  1274-17-41      2   62   59   0.200  -0.440        0
  3798  1274-22-30      2   62   59   0.200  -0.440        0
  3799  1356-43-1      -2   61   60  -0.450   0.220        0
  3800  1347-66-49      1   61   60  -0.290   0.410        0
  3801  1345-55-350    -2   61   60  -0.290   0.410        0
  3802  1345-61-33     -2   61   60  -0.290   0.410        0
  3803  1345-66-49     -2   61   60  -0.290   0.410        0
  3804  1345-71-68     -2   61   60  -0.290   0.410        0
  3805  1345-71-365     3   61   60  -0.290   0.410        0
  3806  1321-12-57      2   61   60   0.170   0.350        0
  3807  1321-17-41      2   61   60   0.170   0.350        0
  3808  1321-22-27      2   61   60   0.170   0.350        0
  3809  1321-27-51      2   61   60   0.170   0.350        0
  3810  1360-56-34     -2   60   59   0.440   0.180        0
  3811  1360-60-362    -2   60   59   0.440   0.180        0
  3812  1360-65-348    -2   60   59   0.440   0.180        0
  3813  1360-71-48     -2   60   59   0.440   0.180        0
  3814  1360-71-365    -2   60   59   0.440   0.180        0
  3815  1328-1-277      1   61   59   0.170   0.280        0
  3816  1328-6-295      1   61   59   0.170   0.280        0
  3817  1306-11-41     -2   61   60   0.400  -0.400        0
  3818  1306-17-41     -2   61   60   0.400  -0.400        0
  3819  1306-22-27     -2   61   60   0.400  -0.400        0
  3820  1306-43-5       2   61   60   0.400  -0.400        0
  3821  1306-48-364     2   61   60   0.400  -0.400        0
  3822  1306-56-33      2   61   60   0.400  -0.400        0
  3823  1306-60-363     2   61   60   0.400  -0.400        0
  3824  1306-66-6      -2   61   60   0.400  -0.400        0
  3825  1306-71-60     -2   61   60   0.400  -0.400        0
  3826  1306-71-365    -2   61   60   0.400  -0.400        0
  3827  1307-1-274      2   61   59   0.360   0.210        0
  3828  1307-11-41      2   61   59   0.360   0.210        0
  3829  1307-17-41      2   61   59   0.360   0.210        0
  3830  1307-22-27      2   61   59   0.360   0.210        0
  3831  1307-26-349     2   61   59   0.360   0.210        0
  3832  1307-48-364     2   61   59   0.360   0.210        0
  3833  1307-56-33      2   61   59   0.360   0.210        0
  3834  1307-71-60      2   61   59   0.360   0.210        0
  3835  1307-71-365     2   61   59   0.360   0.210        0
  3836  1304-1-274      3   62   59  -0.410   0.180        0
  3837  1304-11-41      3   62   59  -0.410   0.180        0
  3838  1304-17-32      3   62   59  -0.410   0.180        0
  3839  1304-22-27      3   62   59  -0.410   0.180        0
  3840  1304-26-302     3   62   59  -0.410   0.180        0
  3841  1304-48-364     3   62   59  -0.410   0.180        0
  3842  1304-56-33      3   62   59  -0.410   0.180        0
  3843  1304-60-356     3   62   59  -0.410   0.180        0
  3844  1304-71-60      3   62   59  -0.410   0.180        0
  3845  1281-12-54      2   62   59   0.080  -0.280        0
  3846  1281-17-41      2   62   59   0.080  -0.280        0
  3847  1281-22-30      2   62   59   0.080  -0.280        0
  3848  1281-32-50      2   62   59   0.080  -0.280        0
  3849  1281-37-49      2   62   59   0.080  -0.280        0
  3850  1292-1-274      2   62   59  -0.070   0.150        0
  3851  1292-17-46      2   62   59  -0.070   0.150        0
  3852  1292-22-27      2   62   59  -0.070   0.150        0
  3853  1292-26-349     2   62   59  -0.070   0.150        0
  3854  1292-43-5       2   62   59  -0.070   0.150        0
  3855  1292-48-364     2   62   59  -0.070   0.150        0
  3856  1272-1-60       2   62   59   0.200   0.280        0
  3857  1272-7-176      2   62   59   0.200   0.280        0
  3858  1272-60-363     2   62   59   0.200   0.280        0
  3859  1272-65-348     2   62   59   0.200   0.280        0
  3860  1272-71-365     2   62   59   0.200   0.280        0
  3861  1298-42-362    -2   62   60  -0.410   0.450        0
  3862  1298-56-10     -2   62   60  -0.410   0.450        0
  3863  1298-60-363    -2   62   60  -0.410   0.450        0
  3864  1298-66-13     -2   62   60  -0.410   0.450        0
  3865  1298-71-365    -2   62   60  -0.410   0.450        0
  3866  1299-56-10      2   62   60  -0.340  -0.010        0
  3867  1299-66-13      1   62   60  -0.340  -0.010        0
  3868  1299-71-365     1   62   60  -0.340  -0.010        0
  3869  1294-43-5       2   62   60  -0.220  -0.200        0
  3870  1294-48-364     2   62   60  -0.220  -0.200        0
  3871  1294-56-10      2   62   60  -0.220  -0.200        0
  3872  1294-60-363     2   62   60  -0.220  -0.200        0
  3873  1294-66-13     -2   62   60  -0.220  -0.200        0
  3874  1294-71-365    -2   62   60  -0.220  -0.200        0
  3875  1296-71-60     -2   62   60  -0.260  -0.170        0
  3876  1288-56-10      2   62   60  -0.150  -0.170        0
  3877  1288-66-13      1   62   60  -0.150  -0.170        0
  3878  1288-71-41      1   62   60  -0.150  -0.170        0
  3879  1288-71-365     1   62   60  -0.150  -0.170        0
  3880  1285-60-361    -2   62   60  -0.070   0.450        0
  3881  1285-71-365    -2   62   60  -0.070   0.450        0
  3882  1291-60-361    -2   62   60  -0.180   0.150        0
  3883  1291-71-365    -2   62   60  -0.180   0.150        0
  3884  1287-60-361    -2   62   60  -0.150   0.220        0
  3885  1287-71-365    -2   62   60  -0.150   0.220        0
  3886  1342-71-62     -2   61   62  -0.180   0.070        0
  3887  1342-71-365    -2   61   62  -0.180   0.070        0
  3888  1346-11-40      2   61   61  -0.290   0.490        0
  3889  1346-17-44      2   61   61  -0.290   0.490        0
  3890  1346-22-27      2   61   61  -0.290   0.490        0
  3891  1346-27-59      2   61   61  -0.290   0.490        0
  3892  1346-32-50      2   61   61  -0.290   0.490        0
  3893  1346-42-362     2   61   61  -0.290   0.490        0
  3894  1346-48-357     2   61   61  -0.290   0.490        0
  3895  1346-56-32      2   61   61  -0.290   0.490        0
  3896  1346-60-363     2   61   61  -0.290   0.490        0
  3897  1346-71-62      2   61   61  -0.290   0.490        0
  3898  1346-71-365     2   61   61  -0.290   0.490        0
  3899  1351-71-62      1   61   62  -0.370  -0.410        0
  3900  1351-71-365     1   61   62  -0.370  -0.410        0
  3901  1305-12-57      2   62   61  -0.490   0.260        0
  3902  1305-17-46      2   62   61  -0.490   0.260        0
  3903  1305-22-27      2   62   61  -0.490   0.260        0
  3904  1305-42-362     2   62   61  -0.490   0.260        0
  3905  1305-48-357     2   62   61  -0.490   0.260        0
  3906  1305-55-357     2   62   61  -0.490   0.260        0
  3907  1305-60-342     2   62   61  -0.490   0.260        0
  3908  1305-66-59      2   62   61  -0.490   0.260        0
  3909  1305-71-20      2   62   61  -0.490   0.260        0
  3910  1305-71-365     2   62   61  -0.490   0.260        0
  3911  1286-1-91       1   62   61  -0.110  -0.130        0
  3912  1284-60-361    -2   62   61  -0.030  -0.330        0
  3913  1284-65-356    -2   62   61  -0.030  -0.330        0
  3914  1284-71-365    -2   62   61  -0.030  -0.330        0
  3915  1271-42-362    -2   62   61   0.200  -0.230        0
  3916  1271-56-10     -2   62   61   0.200  -0.230        0
  3917  1271-60-363    -2   62   61   0.200  -0.230        0
  3918  1271-66-13     -3   62   61   0.200  -0.230        0
  3919  1271-71-62     -3   62   61   0.200  -0.230        0
  3920  1271-71-365    -3   62   61   0.200  -0.230        0
  3921  1293-56-10      2   62   61  -0.220  -0.260        0
  3922  1293-66-13      1   62   61  -0.220  -0.260        0
  3923  1293-71-47      1   62   61  -0.220  -0.260        0
  3924  1293-71-365     1   62   61  -0.220  -0.260        0
  3925  1898-10-252     1   51   74  -0.440  -0.250        0
  3926  1873-10-252     1   51   73   0.060   0.260        0
  3927  1763-10-252     1   52   74  -0.180  -0.030        0
  3928  1762-7-161     -2   52   74  -0.180   0.430        0
  3929  1762-22-60     -2   52   74  -0.180   0.430        0
  3930  1776-42-355    -2   52   74  -0.260   0.400        0
  3931  1776-56-27     -2   52   74  -0.260   0.400        0
  3932  1776-66-54     -2   52   74  -0.260   0.400        0
  3933  1776-71-64     -2   52   74  -0.260   0.400        0
  3934  1776-71-365    -2   52   74  -0.260   0.400        0
  3935  1775-42-355     2   52   74  -0.300   0.400        0
  3936  1775-56-27      2   52   74  -0.300   0.400        0
  3937  1775-66-54      2   52   74  -0.300   0.400        0
  3938  1775-71-64      2   52   74  -0.300   0.400        0
  3939  1775-71-365     2   52   74  -0.300   0.400        0
  3940  1905-10-252     1   51   72  -0.440   0.410        0
  3941  1875-10-252     1   51   72   0.020  -0.300        0
  3942  1877-22-79      1   51   72  -0.020  -0.010        0
  3943  1877-42-356     1   51   72  -0.020  -0.010        0
  3944  1877-48-355     1   51   72  -0.020  -0.010        0
  3945  1877-66-59      1   51   72  -0.020  -0.010        0
  3946  1877-71-64      1   51   72  -0.020  -0.010        0
  3947  1877-71-365     1   51   72  -0.020  -0.010        0
  3948  1878-42-356     2   51   72  -0.020   0.020        0
  3949  1878-48-356     2   51   72  -0.020   0.020        0
  3950  1878-56-10      2   51   72  -0.020   0.020        0
  3951  1878-61-26      2   51   72  -0.020   0.020        0
  3952  1878-66-59      2   51   72  -0.020   0.020        0
  3953  1878-71-64      2   51   72  -0.020   0.020        0
  3954  1878-71-365     2   51   72  -0.020   0.020        0
  3955  1926-42-363     1   50   71   0.370  -0.210        0
  3956  1886-22-79      1   51   71  -0.210   0.110        0
  3957  1886-26-349     1   51   71  -0.210   0.110        0
  3958  1886-42-362     1   51   71  -0.210   0.110        0
  3959  1886-48-357     1   51   71  -0.210   0.110        0
  3960  1886-56-24      1   51   71  -0.210   0.110        0
  3961  1886-66-1       1   51   71  -0.210   0.110        0
  3962  1886-71-62      1   51   71  -0.210   0.110        0
  3963  1886-71-365     1   51   71  -0.210   0.110        0
  3964  1852-10-255     1   51   71   0.250   0.440        0
  3965  1822-10-255     1   52   71  -0.480  -0.120        0
  3966  1786-66-19      1   52   71  -0.290   0.180        0
  3967  1786-71-33      1   52   71  -0.290   0.180        0
  3968  1786-71-365     1   52   71  -0.290   0.180        0
  3969  1851-10-252     1   51   72   0.250   0.410        0
  3970  1791-12-116    -2   52   72  -0.250  -0.010        0
  3971  1791-22-79     -2   52   72  -0.250  -0.010        0
  3972  1791-26-294    -2   52   72  -0.250  -0.010        0
  3973  1791-42-356    -2   52   72  -0.250  -0.010        0
  3974  1791-48-356    -2   52   72  -0.250  -0.010        0
  3975  1791-66-56     -2   52   72  -0.250  -0.010        0
  3976  1791-71-33     -2   52   72  -0.250  -0.010        0
  3977  1791-71-365    -2   52   72  -0.250  -0.010        0
  3978  1785-42-356    -2   52   72  -0.290  -0.010        0
  3979  1785-48-356    -2   52   72  -0.290  -0.010        0
  3980  1785-56-10     -2   52   72  -0.290  -0.010        0
  3981  1785-61-26     -2   52   72  -0.290  -0.010        0
  3982  1785-66-56     -2   52   72  -0.290  -0.010        0
  3983  1785-71-33     -2   52   72  -0.290  -0.010        0
  3984  1785-71-365    -2   52   72  -0.290  -0.010        0
  3985  1928-10-256     1   50   70   0.290   0.170        0
  3986  1879-12-111    -2   51   70  -0.020   0.200        0
  3987  1879-22-79     -2   51   70  -0.020   0.200        0
  3988  1879-42-362    -2   51   70  -0.020   0.200        0
  3989  1879-48-357    -2   51   70  -0.020   0.200        0
  3990  1879-55-353    -2   51   70  -0.020   0.200        0
  3991  1879-60-313    -2   51   70  -0.020   0.200        0
  3992  1879-71-49     -2   51   70  -0.020   0.200        0
  3993  1879-71-365    -2   51   70  -0.020   0.200        0
  3994  1824-10-256     2   52   69  -0.480   0.160        0
  3995  1811-7-156     -2   52   69  -0.400  -0.390        0
  3996  1811-22-79     -2   52   69  -0.400  -0.390        0
  3997  1811-32-32     -2   52   69  -0.400  -0.390        0
  3998  1811-48-357    -2   52   69  -0.400  -0.390        0
  3999  1811-55-354    -2   52   69  -0.400  -0.390        0
  4000  1811-60-349    -2   52   69  -0.400  -0.390        0
  4001  1811-65-355    -2   52   69  -0.400  -0.390        0
  4002  1811-71-68     -2   52   69  -0.400  -0.390        0
  4003  1811-71-365    -2   52   69  -0.400  -0.390        0
  4004  1777-10-256     1   52   69  -0.210   0.160        0
  4005  1823-42-362    -2   52   70  -0.480  -0.030        0
  4006  1823-48-357    -2   52   70  -0.480  -0.030        0
  4007  1823-56-32     -2   52   70  -0.480  -0.030        0
  4008  1823-60-313    -2   52   70  -0.480  -0.030        0
  4009  1823-66-19     -2   52   70  -0.480  -0.030        0
  4010  1823-71-49     -2   52   70  -0.480  -0.030        0
  4011  1823-71-365    -2   52   70  -0.480  -0.030        0
  4012  1744-10-256     1   52   70   0.020  -0.320        0
  4013  1907-12-116     2   50   68   0.450   0.310        0
  4014  1907-22-79      2   50   68   0.450   0.310        0
  4015  1907-42-362     2   50   68   0.450   0.310        0
  4016  1907-48-357     2   50   68   0.450   0.310        0
  4017  1907-71-365     2   50   68   0.450   0.310        0
  4018  1906-42-362    -2   51   68  -0.480   0.380        0
  4019  1906-48-357    -2   51   68  -0.480   0.380        0
  4020  1906-55-356    -2   51   68  -0.480   0.380        0
  4021  1906-60-341    -2   51   68  -0.480   0.380        0
  4022  1906-65-355    -2   51   68  -0.480   0.380        0
  4023  1906-71-32     -2   51   68  -0.480   0.380        0
  4024  1906-71-365    -2   51   68  -0.480   0.380        0
  4025  1899-66-19      1   51   67  -0.400   0.440        0
  4026  1899-71-32      1   51   67  -0.400   0.440        0
  4027  1899-71-365     1   51   67  -0.400   0.440        0
  4028  1778-12-261     2   52   67  -0.210   0.440        0
  4029  1764-10-257     1   52   67  -0.170   0.440        0
  4030  1765-42-362    -2   52   67  -0.290   0.210        0
  4031  1765-48-357    -2   52   67  -0.290   0.210        0
  4032  1765-55-354    -2   52   67  -0.290   0.210        0
  4033  1765-60-349    -2   52   67  -0.290   0.210        0
  4034  1765-66-56     -2   52   67  -0.290   0.210        0
  4035  1765-71-32     -2   52   67  -0.290   0.210        0
  4036  1765-71-365    -2   52   67  -0.290   0.210        0
  4037  1816-10-153     1   52   68  -0.440   0.190        0
  4038  1825-42-335    -2   52   68  -0.480   0.120        0
  4039  1825-48-357    -2   52   68  -0.480   0.120        0
  4040  1825-56-27     -2   52   68  -0.480   0.120        0
  4041  1825-61-42     -2   52   68  -0.480   0.120        0
  4042  1825-66-19     -2   52   68  -0.480   0.120        0
  4043  1825-71-32     -2   52   68  -0.480   0.120        0
  4044  1825-71-365    -2   52   68  -0.480   0.120        0
  4045  1888-22-79      2   51   66  -0.240   0.070        0
  4046  1888-32-32      2   51   66  -0.240   0.070        0
  4047  1888-42-362     2   51   66  -0.240   0.070        0
  4048  1888-48-357     2   51   66  -0.240   0.070        0
  4049  1888-65-355     2   51   66  -0.240   0.070        0
  4050  1888-71-32      2   51   66  -0.240   0.070        0
  4051  1888-71-365     2   51   66  -0.240   0.070        0
  4052  1890-42-362    -2   51   66  -0.240   0.070        0
  4053  1890-48-357    -2   51   66  -0.240   0.070        0
  4054  1890-55-350    -2   51   66  -0.240   0.070        0
  4055  1890-61-42     -2   51   66  -0.240   0.070        0
  4056  1890-66-19     -2   51   66  -0.240   0.070        0
  4057  1890-71-32     -2   51   66  -0.240   0.070        0
  4058  1890-71-365    -2   51   66  -0.240   0.070        0
  4059  1812-12-91      1   51   66   0.440   0.100        0
  4060  1812-22-62      1   51   66   0.440   0.100        0
  4061  1812-32-60      1   51   66   0.440   0.100        0
  4062  1827-42-362     2   51   66   0.480   0.100        0
  4063  1827-48-357     2   51   66   0.480   0.100        0
  4064  1827-56-25      2   51   66   0.480   0.100        0
  4065  1827-61-42      2   51   66   0.480   0.100        0
  4066  1827-66-19      2   51   66   0.480   0.100        0
  4067  1827-71-32      2   51   66   0.480   0.100        0
  4068  1827-71-365     2   51   66   0.480   0.100        0
  4069  1779-12-109     1   52   66  -0.250  -0.250        0
  4070  1779-17-80      1   52   66  -0.250  -0.250        0
  4071  1779-22-79      1   52   66  -0.250  -0.250        0
  4072  1779-42-362     1   52   66  -0.250  -0.250        0
  4073  1870-42-364     1   51   64   0.180   0.180        0
  4074  1817-56-20      2   52   64  -0.480   0.120        0
  4075  1817-66-34      2   52   64  -0.480   0.120        0
  4076  1747-71-60      2   52   64  -0.020  -0.400        0
  4077  1722-1-152      1   52   64   0.400   0.480        0
  4078  1722-22-80      1   52   64   0.400   0.480        0
  4079  1722-26-349     1   52   64   0.400   0.480        0
  4080  1722-32-32      1   52   64   0.400   0.480        0
  4081  1722-42-362     1   52   64   0.400   0.480        0
  4082  1722-48-357     1   52   64   0.400   0.480        0
  4083  1722-56-24      1   52   64   0.400   0.480        0
  4084  1722-61-11      1   52   64   0.400   0.480        0
  4085  1722-66-59      1   52   64   0.400   0.480        0
  4086  1722-71-56      1   52   64   0.400   0.480        0
  4087  1722-71-365     1   52   64   0.400   0.480        0
  4088  1668-56-20      1   53   64  -0.140   0.090        0
  4089  1666-66-34      2   53   64  -0.100   0.190        0
  4090  1718-56-20     -2   52   63   0.250   0.310        0
  4091  1718-61-59     -2   52   63   0.250   0.310        0
  4092  1718-66-34     -2   52   63   0.250   0.310        0
  4093  1662-56-20     -2   53   63   0.010   0.050        0
  4094  1664-66-34      2   53   63  -0.210   0.440        0
  4095  1664-71-60      2   53   63  -0.210   0.440        0
  4096  1641-66-34      2   53   64   0.240   0.380        0
  4097  1619-1-365     -2   54   65  -0.300  -0.490        0
  4098  1619-8-57      -2   54   65  -0.300  -0.490        0
  4099  1619-12-59     -2   54   65  -0.300  -0.490        0
  4100  1619-17-87     -2   54   65  -0.300  -0.490        0
  4101  1619-22-79     -2   54   65  -0.300  -0.490        0
  4102  1619-42-335    -2   54   65  -0.300  -0.490        0
  4103  1608-35-121    -2   54   65  -0.070  -0.490        0
  4104  1608-42-362    -2   54   65  -0.070  -0.490        0
  4105  1608-48-357    -2   54   65  -0.070  -0.490        0
  4106  1608-55-340    -2   54   65  -0.070  -0.490        0
  4107  1608-60-348    -2   54   65  -0.070  -0.490        0
  4108  1608-66-5      -2   54   65  -0.070  -0.490        0
  4109  1608-71-1      -2   54   65  -0.070  -0.490        0
  4110  1608-71-365    -2   54   65  -0.070  -0.490        0
  4111  1714-56-33      1   52   66   0.320  -0.220        0
  4112  1714-71-29      1   52   66   0.320  -0.220        0
  4113  1714-71-365     1   52   66   0.320  -0.220        0
  4114  1715-66-59      1   52   66   0.320  -0.220        0
  4115  1715-71-29      1   52   66   0.320  -0.220        0
  4116  1715-71-365     1   52   66   0.320  -0.220        0
  4117  1716-66-59      1   52   66   0.320  -0.420        0
  4118  1716-71-29      1   52   66   0.320  -0.420        0
  4119  1716-71-365     1   52   66   0.320  -0.420        0
  4120  1717-71-32      2   52   66   0.320  -0.420        0
  4121  1717-71-365     2   52   66   0.320  -0.420        0
  4122  1689-71-29      1   52   66   0.480  -0.420        0
  4123  1689-71-365     1   52   66   0.480  -0.420        0
  4124  1696-66-59      1   52   66   0.480  -0.420        0
  4125  1696-71-29      1   52   66   0.480  -0.420        0
  4126  1696-71-365     1   52   66   0.480  -0.420        0
  4127  1673-2-274     -2   53   66  -0.370   0.460        0
  4128  1673-8-57      -2   53   66  -0.370   0.460        0
  4129  1673-12-59     -2   53   66  -0.370   0.460        0
  4130  1673-17-87     -2   53   66  -0.370   0.460        0
  4131  1673-22-79     -2   53   66  -0.370   0.460        0
  4132  1673-42-363    -2   53   66  -0.370   0.460        0
  4133  1673-48-357    -2   53   66  -0.370   0.460        0
  4134  1673-56-24     -2   53   66  -0.370   0.460        0
  4135  1723-1-32       2   52   66   0.320  -0.480        0
  4136  1723-12-59      2   52   66   0.320  -0.480        0
  4137  1723-17-87      2   52   66   0.320  -0.480        0
  4138  1723-22-80      2   52   66   0.320  -0.480        0
  4139  1723-42-363     2   52   66   0.320  -0.480        0
  4140  1723-48-357     2   52   66   0.320  -0.480        0
  4141  1723-56-24      2   52   66   0.320  -0.480        0
  4142  1723-60-348     2   52   66   0.320  -0.480        0
  4143  1723-66-59      2   52   66   0.320  -0.480        0
  4144  1723-71-32      2   52   66   0.320  -0.480        0
  4145  1723-71-365     2   52   66   0.320  -0.480        0
  4146  1724-1-365      2   52   65   0.360   0.130        0
  4147  1724-12-59      2   52   65   0.360   0.130        0
  4148  1724-17-82      2   52   65   0.360   0.130        0
  4149  1724-22-80      2   52   65   0.360   0.130        0
  4150  1724-42-363     2   52   65   0.360   0.130        0
  4151  1724-48-357     2   52   65   0.360   0.130        0
  4152  1724-56-20      2   52   65   0.360   0.130        0
  4153  1724-60-348     2   52   65   0.360   0.130        0
  4154  1724-66-59      2   52   65   0.360   0.130        0
  4155  1724-71-56      2   52   65   0.360   0.130        0
  4156  1724-71-365     2   52   65   0.360   0.130        0
  4157  1694-17-82     -2   53   68  -0.490   0.220        0
  4158  1694-22-80     -2   53   68  -0.490   0.220        0
  4159  1699-42-363     2   52   68   0.440   0.090        0
  4160  1699-48-357     2   52   68   0.440   0.090        0
  4161  1699-55-356     2   52   68   0.440   0.090        0
  4162  1699-60-349     2   52   68   0.440   0.090        0
  4163  1699-66-56      2   52   68   0.440   0.090        0
  4164  1699-71-32      2   52   68   0.440   0.090        0
  4165  1699-71-365     2   52   68   0.440   0.090        0
  4166  1695-7-158      2   52   68   0.480  -0.330        0
  4167  1695-42-363     2   52   68   0.480  -0.330        0
  4168  1695-48-357     2   52   68   0.480  -0.330        0
  4169  1695-56-24      2   52   68   0.480  -0.330        0
  4170  1695-60-336     2   52   68   0.480  -0.330        0
  4171  1695-66-56      2   52   68   0.480  -0.330        0
  4172  1695-71-56      2   52   68   0.480  -0.330        0
  4173  1695-71-365     2   52   68   0.480  -0.330        0
  4174  1658-2-217     -2   53   67   0.090  -0.150        0
  4175  1658-8-58      -2   53   67   0.090  -0.150        0
  4176  1658-12-59     -2   53   67   0.090  -0.150        0
  4177  1658-17-87     -2   53   67   0.090  -0.150        0
  4178  1658-22-81     -2   53   67   0.090  -0.150        0
  4179  1652-42-363     2   53   67   0.130  -0.150        0
  4180  1652-48-357     2   53   67   0.130  -0.150        0
  4181  1652-56-24      2   53   67   0.130  -0.150        0
  4182  1652-60-349     2   53   67   0.130  -0.150        0
  4183  1652-66-1       2   53   67   0.130  -0.150        0
  4184  1652-71-76      2   53   67   0.130  -0.150        0
  4185  1652-71-365     2   53   67   0.130  -0.150        0
  4186  1633-12-96      1   53   68   0.430   0.150        0
  4187  1633-17-89      1   53   68   0.430   0.150        0
  4188  1633-42-355     1   53   68   0.430   0.150        0
  4189  1713-61-54      2   52   70   0.320   0.230        0
  4190  1713-66-56      2   52   70   0.320   0.230        0
  4191  1713-71-64      2   52   70   0.320   0.230        0
  4192  1713-71-365     2   52   70   0.320   0.230        0
  4193  1670-42-357    -2   53   70  -0.180  -0.350        0
  4194  1656-22-80      1   53   70   0.130  -0.320        0
  4195  1656-31-351     1   53   70   0.130  -0.320        0
  4196  1656-37-343     1   53   70   0.130  -0.320        0
  4197  1656-55-360     1   53   70   0.130  -0.320        0
  4198  1656-61-42      1   53   70   0.130  -0.320        0
  4199  1656-66-56      1   53   70   0.130  -0.320        0
  4200  1656-71-33      1   53   70   0.130  -0.320        0
  4201  1656-71-365     1   53   70   0.130  -0.320        0
  4202  1655-17-89     -2   53   70   0.090   0.040        0
  4203  1655-22-80     -2   53   70   0.090   0.040        0
  4204  1655-42-355    -2   53   70   0.090   0.040        0
  4205  1655-48-364    -2   53   70   0.090   0.040        0
  4206  1651-42-362     2   53   69   0.090  -0.390        0
  4207  1651-48-355     2   53   69   0.090  -0.390        0
  4208  1657-60-349    -2   53   69   0.050  -0.290        0
  4209  1657-66-56     -2   53   69   0.050  -0.290        0
  4210  1657-71-32     -2   53   69   0.050  -0.290        0
  4211  1657-71-365    -2   53   69   0.050  -0.290        0
  4212  1614-12-96      1   54   70  -0.220  -0.280        0
  4213  1614-17-89      1   54   70  -0.220  -0.280        0
  4214  1614-22-80      1   54   70  -0.220  -0.280        0
  4215  1615-17-89      1   54   70  -0.220  -0.320        0
  4216  1615-22-80      1   54   70  -0.220  -0.320        0
  4217  1615-42-356     1   54   70  -0.220  -0.320        0
  4218  1615-48-355     1   54   70  -0.220  -0.320        0
  4219  1615-56-20      1   54   70  -0.220  -0.320        0
  4220  1615-61-31      1   54   70  -0.220  -0.320        0
  4221  1615-66-56      1   54   70  -0.220  -0.320        0
  4222  1615-71-33      1   54   70  -0.220  -0.320        0
  4223  1615-71-365     1   54   70  -0.220  -0.320        0
  4224  1611-42-356    -2   54   70  -0.150  -0.220        0
  4225  1611-48-355    -2   54   70  -0.150  -0.220        0
  4226  1611-56-20     -2   54   70  -0.150  -0.220        0
  4227  1611-61-31     -2   54   70  -0.150  -0.220        0
  4228  1611-66-56     -2   54   70  -0.150  -0.220        0
  4229  1611-71-33     -2   54   70  -0.150  -0.220        0
  4230  1611-71-365    -2   54   70  -0.150  -0.220        0
  4231  1708-42-357    -2   52   72   0.360   0.090        0
  4232  1708-48-341    -2   52   72   0.360   0.090        0
  4233  1693-17-87      1   52   72   0.470   0.090        0
  4234  1693-22-79      1   52   72   0.470   0.090        0
  4235  1693-42-356     1   52   72   0.470   0.090        0
  4236  1693-48-356     1   52   72   0.470   0.090        0
  4237  1687-42-356    -2   52   72   0.470   0.090        0
  4238  1687-48-356    -2   52   72   0.470   0.090        0
  4239  1687-56-27     -2   52   72   0.470   0.090        0
  4240  1687-61-26     -2   52   72   0.470   0.090        0
  4241  1687-66-56     -2   52   72   0.470   0.090        0
  4242  1687-71-33     -2   52   72   0.470   0.090        0
  4243  1687-71-365    -2   52   72   0.470   0.090        0
  4244  1681-17-87      1   53   71  -0.410   0.080        0
  4245  1681-22-79      1   53   71  -0.410   0.080        0
  4246  1681-26-294     1   53   71  -0.410   0.080        0
  4247  1681-48-356     1   53   71  -0.410   0.080        0
  4248  1681-66-56      1   53   71  -0.410   0.080        0
  4249  1681-71-33      1   53   71  -0.410   0.080        0
  4250  1681-71-365     1   53   71  -0.410   0.080        0
  4251  1688-42-356    -2   53   71  -0.410   0.080        0
  4252  1688-48-356    -2   53   71  -0.410   0.080        0
  4253  1688-55-364    -2   53   71  -0.410   0.080        0
  4254  1688-61-21     -2   53   71  -0.410   0.080        0
  4255  1688-66-56     -2   53   71  -0.410   0.080        0
  4256  1688-71-33     -2   53   71  -0.410   0.080        0
  4257  1688-71-365    -2   53   71  -0.410   0.080        0
  4258  1596-12-96      1   54   71  -0.340  -0.210        0
  4259  1596-22-81      1   54   71  -0.340  -0.210        0
  4260  1596-42-356     1   54   71  -0.340  -0.210        0
  4261  1621-42-356    -2   54   71  -0.340  -0.180        0
  4262  1621-48-356    -2   54   71  -0.340  -0.180        0
  4263  1621-56-6      -2   54   71  -0.340  -0.180        0
  4264  1621-61-42     -2   54   71  -0.340  -0.180        0
  4265  1621-65-355    -2   54   71  -0.340  -0.180        0
  4266  1621-71-33     -2   54   71  -0.340  -0.180        0
  4267  1621-71-365    -2   54   71  -0.340  -0.180        0
  4268  1605-11-45      1   54   71   0.040  -0.280        0
  4269  1630-17-87      1   54   72  -0.490   0.060        0
  4270  1630-22-79      1   54   72  -0.490   0.060        0
  4271  1630-42-355     1   54   72  -0.490   0.060        0
  4272  1630-48-356     1   54   72  -0.490   0.060        0
  4273  1630-66-59      1   54   72  -0.490   0.060        0
  4274  1630-71-33      1   54   72  -0.490   0.060        0
  4275  1630-71-365     1   54   72  -0.490   0.060        0
  4276  1629-42-355     2   53   72   0.470   0.060        0
  4277  1629-48-356     2   53   72   0.470   0.060        0
  4278  1629-56-9       2   53   72   0.470   0.060        0
  4279  1629-61-21      2   53   72   0.470   0.060        0
  4280  1629-66-59      2   53   72   0.470   0.060        0
  4281  1629-71-33      2   53   72   0.470   0.060        0
  4282  1629-71-365     2   53   72   0.470   0.060        0
  4283  1683-22-79     -2   53   74  -0.420   0.170        0
  4284  1683-26-349    -2   53   74  -0.420   0.170        0
  4285  1683-42-355    -2   53   74  -0.420   0.170        0
  4286  1683-48-355     2   53   74  -0.420   0.170        0
  4287  1683-56-27      2   53   74  -0.420   0.170        0
  4288  1683-60-349     2   53   74  -0.420   0.170        0
  4289  1683-66-54     -2   53   74  -0.420   0.170        0
  4290  1679-42-355     2   53   74  -0.420   0.170        0
  4291  1679-48-355     2   53   74  -0.420   0.170        0
  4292  1679-56-27      2   53   74  -0.420   0.170        0
  4293  1679-61-11      2   53   74  -0.420   0.170        0
  4294  1680-66-54      2   53   74  -0.420   0.170        0
  4295  1654-42-355     2   53   73  -0.030   0.130        0
  4296  1654-48-355     2   53   73  -0.030   0.130        0
  4297  1654-56-27      2   53   73  -0.030   0.130        0
  4298  1654-61-14      2   53   73  -0.030   0.130        0
  4299  1654-66-54      2   53   73  -0.030   0.130        0
  4300  1654-71-64      2   53   73  -0.030   0.130        0
  4301  1654-71-365     2   53   73  -0.030   0.130        0
  4302  1660-42-355     2   53   73  -0.030   0.130        0
  4303  1660-48-355     2   53   73  -0.030   0.130        0
  4304  1660-56-27      2   53   73  -0.030   0.130        0
  4305  1660-60-349     2   53   73  -0.030   0.130        0
  4306  1660-66-54      2   53   73  -0.030   0.130        0
  4307  1660-71-64      2   53   73  -0.030   0.130        0
  4308  1660-71-365     2   53   73  -0.030   0.130        0
  4309  1554-22-81     -2   55   74   0.150   0.080        0
  4310  1554-27-15     -2   55   74   0.150   0.080        0
  4311  1554-32-60     -2   55   74   0.150   0.080        0
  4312  1554-56-26      2   55   74   0.150   0.080        0
  4313  1554-61-12      2   55   74   0.150   0.080        0
  4314  1554-66-59      2   55   74   0.150   0.080        0
  4315  1554-71-54      2   55   74   0.150   0.080        0
  4316  1554-71-365     2   55   74   0.150   0.080        0
  4317  1504-22-60     -2   56   74   0.100   0.110        0
  4318  1548-7-158      2   55   72   0.040  -0.360        0
  4319  1548-11-82      2   55   72   0.040  -0.360        0
  4320  1548-17-87      2   55   72   0.040  -0.360        0
  4321  1548-22-81      2   55   72   0.040  -0.360        0
  4322  1548-26-278     2   55   72   0.040  -0.360        0
  4323  1550-48-365    -2   55   72   0.070  -0.360        0
  4324  1550-56-6      -2   55   72   0.070  -0.360        0
  4325  1550-61-27     -2   55   72   0.070  -0.360        0
  4326  1550-66-28     -2   55   72   0.070  -0.360        0
  4327  1550-71-13     -2   55   72   0.070  -0.360        0
  4328  1550-71-365    -2   55   72   0.070  -0.360        0
  4329  1559-66-46      1   55   71  -0.120  -0.310        0
  4330  1559-71-365     1   55   71  -0.120  -0.310        0
  4331  1569-32-60      1   55   71  -0.270   0.340        0
  4332  1569-37-89      1   55   71  -0.270   0.340        0
  4333  1569-42-356     1   55   71  -0.270   0.340        0
  4334  1569-48-355     1   55   71  -0.270   0.340        0
  4335  1569-56-26      1   55   71  -0.270   0.340        0
  4336  1569-61-24      1   55   71  -0.270   0.340        0
  4337  1569-66-28      1   55   71  -0.270   0.340        0
  4338  1569-71-365     1   55   71  -0.270   0.340        0
  4339  1540-17-86      1   55   72   0.190  -0.490        0
  4340  1540-22-81      1   55   72   0.190  -0.490        0
  4341  1540-26-279     1   55   72   0.190  -0.490        0
  4342  1540-42-355     1   55   72   0.190  -0.490        0
  4343  1540-48-355     1   55   72   0.190  -0.490        0
  4344  1540-56-26      1   55   72   0.190  -0.490        0
  4345  1540-60-350     1   55   72   0.190  -0.490        0
  4346  1540-66-28      1   55   72   0.190  -0.490        0
  4347  1540-71-365     1   55   72   0.190  -0.490        0
  4348  1526-17-87      2   56   71  -0.350   0.250        0
  4349  1526-22-81      2   56   71  -0.350   0.250        0
  4350  1526-26-349     2   56   71  -0.350   0.250        0
  4351  1526-32-60      2   56   71  -0.350   0.250        0
  4352  1526-42-356     2   56   71  -0.350   0.250        0
  4353  1526-48-355     2   56   71  -0.350   0.250        0
  4354  1526-56-26      2   56   71  -0.350   0.250        0
  4355  1526-60-350     2   56   71  -0.350   0.250        0
  4356  1526-65-355     2   56   71  -0.350   0.250        0
  4357  1526-71-362     2   56   71  -0.350   0.250        0
  4358  1518-42-357    -2   56   71  -0.200   0.250        0
  4359  1517-71-53      2   56   73  -0.120  -0.480        0
  4360  1517-71-365     2   56   73  -0.120  -0.480        0
  4361  1564-56-26      2   55   70  -0.150   0.070        0
  4362  1564-71-365     2   55   70  -0.150   0.070        0
  4363  1552-12-59      1   55   69  -0.080   0.070        0
  4364  1552-17-85      1   55   69  -0.080   0.070        0
  4365  1552-22-80      1   55   69  -0.080   0.070        0
  4366  1557-42-356     1   55   69  -0.080   0.030        0
  4367  1557-48-355     1   55   69  -0.080   0.030        0
  4368  1557-56-20      1   55   69  -0.080   0.030        0
  4369  1557-71-13      1   55   69  -0.080   0.030        0
  4370  1557-71-365     1   55   69  -0.080   0.030        0
  4371  1570-2-98       1   55   69  -0.310  -0.190        0
  4372  1631-12-96      1   56   69  -0.200   0.200        0
  4373  1631-17-87      1   56   69  -0.200   0.200        0
  4374  1631-22-80      1   56   69  -0.200   0.200        0
  4375  1631-26-279     1   56   69  -0.200   0.200        0
  4376  1631-42-355     1   56   69  -0.200   0.200        0
  4377  1631-48-355     1   56   69  -0.200   0.200        0
  4378  1631-56-26      1   56   69  -0.200   0.200        0
  4379  1631-66-32      1   56   69  -0.200   0.200        0
  4380  1631-71-33      1   56   69  -0.200   0.200        0
  4381  1631-71-365     1   56   69  -0.200   0.200        0
  4382  1519-42-355    -2   56   69  -0.200   0.160        0
  4383  1519-48-355    -2   56   69  -0.200   0.160        0
  4384  1519-56-20     -2   56   69  -0.200   0.160        0
  4385  1519-61-18     -2   56   69  -0.200   0.160        0
  4386  1519-66-32     -2   56   69  -0.200   0.160        0
  4387  1519-71-33     -2   56   69  -0.200   0.160        0
  4388  1519-71-365    -2   56   69  -0.200   0.160        0
  4389  1542-56-20      2   55   70   0.230   0.140        0
  4390  1542-60-350     2   55   70   0.230   0.140        0
  4391  1542-66-54      2   55   70   0.230   0.140        0
  4392  1542-71-13      2   55   70   0.230   0.140        0
  4393  1542-71-365     2   55   70   0.230   0.140        0
  4394  1520-17-87      1   56   70  -0.230  -0.050        0
  4395  1520-22-80      1   56   70  -0.230  -0.050        0
  4396  1520-32-60      1   56   70  -0.230  -0.050        0
  4397  1520-42-356     1   56   70  -0.230  -0.050        0
  4398  1597-56-27      1   54   69   0.240  -0.490        0
  4399  1597-66-26      1   54   69   0.240  -0.490        0
  4400  1597-71-28      1   54   69   0.240  -0.490        0
  4401  1597-71-365     1   54   69   0.240  -0.490        0
  4402  1581-11-256     1   55   68  -0.500   0.450        0
  4403  1583-56-27      1   54   68   0.430  -0.400        0
  4404  1583-66-26      1   54   68   0.430  -0.400        0
  4405  1583-71-28      1   54   68   0.430  -0.400        0
  4406  1583-71-29      1   54   68   0.430  -0.400        0
  4407  1583-71-365     1   54   68   0.430  -0.400        0
  4408  1583-71-365     1   54   68   0.430  -0.400        0
  4409  1565-71-28      2   55   69  -0.190  -0.490        0
  4410  1565-71-365     2   55   69  -0.190  -0.490        0
  4411  1595-11-257     2   54   67   0.310   0.440        0
  4412  1533-8-65       1   55   67   0.350  -0.310        0
  4413  1533-12-96      1   55   67   0.350  -0.310        0
  4414  1533-17-82      1   55   67   0.350  -0.310        0
  4415  1533-22-80      1   55   67   0.350  -0.310        0
  4416  1533-27-15      1   55   67   0.350  -0.310        0
  4417  1533-42-363     1   55   67   0.350  -0.310        0
  4418  1537-42-363     2   55   67   0.310  -0.310        0
  4419  1537-48-357     2   55   67   0.310  -0.310        0
  4420  1541-66-55      1   55   67   0.270  -0.410        0
  4421  1541-71-76      1   55   67   0.270  -0.410        0
  4422  1541-71-365     1   55   67   0.270  -0.410        0
  4423  1510-42-357     2   56   67  -0.040  -0.370        0
  4424  1510-48-337     2   56   67  -0.040  -0.370        0
  4425  1510-56-18      2   56   67  -0.040  -0.370        0
  4426  1510-60-333     2   56   67  -0.040  -0.370        0
  4427  1510-65-299     2   56   67  -0.040  -0.370        0
  4428  1510-71-11      2   56   67  -0.040  -0.370        0
  4429  1510-71-365     2   56   67  -0.040  -0.370        0
  4430  1511-31-351     2   56   67  -0.040  -0.370        0
  4431  1511-37-27      2   56   67  -0.040  -0.370        0
  4432  1511-42-357     2   56   67  -0.040  -0.370        0
  4433  1511-48-337     2   56   67  -0.040  -0.370        0
  4434  1511-56-18      2   56   67  -0.040  -0.370        0
  4435  1511-60-333     2   56   67  -0.040  -0.370        0
  4436  1511-65-299     2   56   67  -0.040  -0.370        0
  4437  1511-71-12      2   56   67  -0.040  -0.370        0
  4438  1511-71-365     2   56   67  -0.040  -0.370        0
  4439  1512-31-351     2   56   67  -0.040  -0.370        0
  4440  1512-42-357     2   56   67  -0.040  -0.370        0
  4441  1512-48-337     2   56   67  -0.040  -0.370        0
  4442  1512-56-18      2   56   67  -0.040  -0.370        0
  4443  1513-31-351     2   56   67  -0.040  -0.370        0
  4444  1513-42-357     2   56   67  -0.040  -0.370        0
  4445  1513-48-337     2   56   67  -0.040  -0.370        0
  4446  1513-56-18      2   56   67  -0.040  -0.370        0
  4447  1513-60-333     2   56   67  -0.040  -0.370        0
  4448  1513-65-299     2   56   67  -0.040  -0.370        0
  4449  1513-71-11      2   56   67  -0.040  -0.370        0
  4450  1513-71-365     2   56   67  -0.040  -0.370        0
  4451  1505-66-26      1   56   68   0.110   0.450        0
  4452  1505-71-53      1   56   68   0.110   0.450        0
  4453  1505-71-365     1   56   68   0.110   0.450        0
  4454  1546-8-65       2   55   66   0.120   0.040        0
  4455  1546-10-31      2   55   66   0.120   0.040        0
  4456  1546-17-82      2   55   66   0.120   0.040        0
  4457  1546-22-81      2   55   66   0.120   0.040        0
  4458  1551-42-363    -2   55   66   0.120  -0.250        0
  4459  1551-48-357    -2   55   66   0.120  -0.250        0
  4460  1551-56-13     -2   55   66   0.120  -0.250        0
  4461  1551-61-31     -2   55   66   0.120  -0.250        0
  4462  1551-66-19     -2   55   66   0.120  -0.250        0
  4463  1551-71-32     -2   55   66   0.120  -0.250        0
  4464  1551-71-365    -2   55   66   0.120  -0.250        0
  4465  1525-10-154     2   56   65  -0.380   0.330        0
  4466  1525-22-83      2   56   65  -0.380   0.330        0
  4467  1525-32-60      2   56   65  -0.380   0.330        0
  4468  1525-42-363     2   56   65  -0.380   0.330        0
  4469  1525-56-25      2   56   65  -0.380   0.330        0
  4470  1525-60-351     2   56   65  -0.380   0.330        0
  4471  1525-66-1       2   56   65  -0.380   0.330        0
  4472  1525-71-32      2   56   65  -0.380   0.330        0
  4473  1525-71-365     2   56   65  -0.380   0.330        0
  4474  1813-17-82      2   55   66   0.460   0.040        0
  4475  1813-22-82      2   55   66   0.460   0.040        0
  4476  1813-26-294     2   55   66   0.460   0.040        0
  4477  1813-42-363     2   55   66   0.460   0.040        0
  4478  1813-48-357     2   55   66   0.460   0.040        0
  4479  1813-56-25      2   55   66   0.460   0.040        0
  4480  1813-60-351     2   55   66   0.460   0.040        0
  4481  1813-66-19      2   55   66   0.460   0.040        0
  4482  1813-71-32      2   55   66   0.460   0.040        0
  4483  1813-71-365     2   55   66   0.460   0.040        0
  4484  1538-10-154    -2   55   66   0.310  -0.280        0
  4485  1538-17-86     -2   55   66   0.310  -0.280        0
  4486  1538-22-82     -2   55   66   0.310  -0.280        0
  4487  1538-42-363    -2   55   66   0.310  -0.280        0
  4488  1567-12-59     -2   55   64  -0.230   0.190        0
  4489  1567-17-85     -2   55   64  -0.230   0.190        0
  4490  1567-22-53     -2   55   64  -0.230   0.190        0
  4491  1567-27-15     -2   55   64  -0.230   0.190        0
  4492  1567-32-65     -2   55   64  -0.230   0.190        0
  4493  1578-42-362     2   55   64  -0.420   0.190        0
  4494  1579-34-182    -2   55   63  -0.420   0.240        0
  4495  1466-12-96      2   57   63   0.070   0.370        0
  4496  1466-17-89      2   57   63   0.070   0.370        0
  4497  1466-32-60      2   57   63   0.070   0.370        0
  4498  1466-37-89      2   57   63   0.070   0.370        0
  4499  1466-42-363     2   57   63   0.070   0.370        0
  4500  1466-48-357     2   57   63   0.070   0.370        0
  4501  1466-56-25      2   57   63   0.070   0.370        0
  4502  1466-71-365     2   57   63   0.070   0.370        0
  4503  1467-17-89      2   57   63   0.110   0.410        0
  4504  1467-22-60      2   57   63   0.110   0.410        0
  4505  1467-48-357     2   57   63   0.110   0.410        0
  4506  1467-56-25      2   57   63   0.110   0.410        0
  4507  1467-60-351     2   57   63   0.110   0.410        0
  4508  1467-65-355     2   57   63   0.110   0.410        0
  4509  1467-71-52      2   57   63   0.110   0.410        0
  4510  1467-71-365     2   57   63   0.110   0.410        0
  4511  1470-17-82      2   57   66  -0.120  -0.020        0
  4512  1470-22-82      2   57   66  -0.120  -0.020        0
  4513  1470-42-362     2   57   66  -0.120  -0.020        0
  4514  1470-48-357     2   57   66  -0.120  -0.020        0
  4515  1470-56-18      2   57   66  -0.120  -0.020        0
  4516  1470-60-308     2   57   66  -0.120  -0.020        0
  4517  1470-71-365     2   57   66  -0.120  -0.020        0
  4518  1500-27-60     -2   56   65   0.270   0.130        0
  4519  1500-42-362    -2   56   65   0.270   0.130        0
  4520  1500-48-357    -2   56   65   0.270   0.130        0
  4521  1500-56-25     -2   56   65   0.270   0.130        0
  4522  1500-60-351    -2   56   65   0.270   0.130        0
  4523  1459-11-68      2   57   65   0.180  -0.190        0
  4524  1459-17-82      2   57   65   0.180  -0.190        0
  4525  1459-22-60      2   57   65   0.180  -0.190        0
  4526  1459-26-293     2   57   65   0.180  -0.190        0
  4527  1459-42-363     2   57   65   0.180  -0.190        0
  4528  1459-48-357     2   57   65   0.180  -0.190        0
  4529  1459-56-25      2   57   65   0.180  -0.190        0
  4530  1459-60-351     2   57   65   0.180  -0.190        0
  4531  1459-66-12      2   57   65   0.180  -0.190        0
  4532  1459-71-365     2   57   65   0.180  -0.190        0
  4533  1455-12-96      1   57   66   0.450  -0.020        0
  4534  1455-17-82      1   57   66   0.450  -0.020        0
  4535  1443-12-96      2   58   66  -0.430   0.010        0
  4536  1443-17-82      2   58   66  -0.430   0.010        0
  4537  1443-32-60      2   58   66  -0.430   0.010        0
  4538  1443-38-60      2   58   66  -0.430   0.010        0
  4539  1443-42-364     2   58   66  -0.430   0.010        0
  4540  1443-48-341     2   58   66  -0.430   0.010        0
  4541  1486-56-56      1   57   68  -0.390   0.090        0
  4542  1486-71-365     1   57   68  -0.390   0.090        0
  4543  1485-71-365     1   57   68  -0.390   0.090        0
  4544  1475-11-305     1   57   67  -0.200  -0.270        0
  4545  1465-17-82      1   57   67   0.180  -0.210        0
  4546  1465-22-82      1   57   67   0.180  -0.210        0
  4547  1465-42-356     1   57   67   0.180  -0.210        0
  4548  1465-48-355     1   57   67   0.180  -0.210        0
  4549  1465-56-25      1   57   67   0.180  -0.210        0
  4550  1465-60-351     1   57   67   0.180  -0.210        0
  4551  1465-66-1       1   57   67   0.180  -0.210        0
  4552  1465-71-365     1   57   67   0.180  -0.210        0
  4553  1440-17-82     -2   57   68   0.260  -0.430        0
  4554  1440-22-80     -2   57   68   0.260  -0.430        0
  4555  1440-32-60     -2   57   68   0.260  -0.430        0
  4556  1440-37-90     -2   57   68   0.260  -0.430        0
  4557  1440-48-355    -2   57   68   0.260  -0.430        0
  4558  1441-11-283    -2   58   68  -0.360   0.450        0
  4559  1474-17-87      1   57   70  -0.200   0.140        0
  4560  1474-22-80      1   57   70  -0.200   0.140        0
  4561  1474-61-31      1   57   70  -0.200   0.140        0
  4562  1474-71-68      1   57   70  -0.200   0.140        0
  4563  1474-71-365     1   57   70  -0.200   0.140        0
  4564  1478-48-355    -2   57   70  -0.240  -0.050        0
  4565  1478-56-26     -2   57   70  -0.240  -0.050        0
  4566  1478-60-350    -2   57   70  -0.240  -0.050        0
  4567  1478-65-355    -2   57   70  -0.240  -0.050        0
  4568  1478-71-68     -2   57   70  -0.240  -0.050        0
  4569  1478-71-365    -2   57   70  -0.240  -0.050        0
  4570  1453-17-85      1   57   69   0.370  -0.090        0
  4571  1453-22-80      1   57   69   0.370  -0.090        0
  4572  1453-42-356     1   57   69   0.370  -0.090        0
  4573  1453-48-355     1   57   69   0.370  -0.090        0
  4574  1453-66-49      1   57   69   0.370  -0.090        0
  4575  1453-71-68      1   57   69   0.370  -0.090        0
  4576  1453-71-365     1   57   69   0.370  -0.090        0
  4577  1454-42-356    -2   57   69   0.330  -0.090        0
  4578  1454-48-355    -2   57   69   0.330  -0.090        0
  4579  1454-55-362    -2   57   69   0.330  -0.090        0
  4580  1454-61-31     -2   57   69   0.330  -0.090        0
  4581  1454-66-49     -2   57   69   0.330  -0.090        0
  4582  1454-71-68     -2   57   69   0.330  -0.090        0
  4583  1454-71-365    -2   57   69   0.330  -0.090        0
  4584  1447-66-49      1   57   69   0.410   0.100        0
  4585  1447-71-68      1   57   69   0.410   0.100        0
  4586  1447-71-365     1   57   69   0.410   0.100        0
  4587  1444-42-356    -2   58   70  -0.470  -0.310        0
  4588  1444-48-355    -2   58   70  -0.470  -0.310        0
  4589  1444-55-362    -2   58   70  -0.470  -0.310        0
  4590  1444-61-6      -2   58   70  -0.470  -0.310        0
  4591  1444-66-49     -2   58   70  -0.470  -0.310        0
  4592  1444-71-68     -2   58   70  -0.470  -0.310        0
  4593  1444-71-365    -2   58   70  -0.470  -0.310        0
  4594  1499-11-360    -2   56   72   0.300   0.160        0
  4595  1499-17-85     -2   56   72   0.300   0.160        0
  4596  1499-22-81     -2   56   72   0.300   0.160        0
  4597  1499-48-355    -2   56   72   0.300   0.160        0
  4598  1499-56-20     -2   56   72   0.300   0.160        0
  4599  1499-60-350    -2   56   72   0.300   0.160        0
  4600  1499-66-14     -2   56   72   0.300   0.160        0
  4601  1499-71-64     -2   56   72   0.300   0.160        0
  4602  1499-71-365    -2   56   72   0.300   0.160        0
  4603  1490-66-45      1   56   72   0.450   0.320        0
  4604  1490-71-64      1   56   72   0.450   0.320        0
  4605  1490-71-365     1   56   72   0.450   0.320        0
  4606  1436-71-64      2   57   71   0.220   0.120        0
  4607  1436-71-365     2   57   71   0.220   0.120        0
  4608  1488-17-87      2   57   74  -0.440   0.080        0
  4609  1488-22-81      2   57   74  -0.440   0.080        0
  4610  1488-48-350     2   57   74  -0.440   0.080        0
  4611  1488-56-20      2   57   74  -0.440   0.080        0
  4612  1502-17-85     -2   56   74   0.260  -0.350        0
  4613  1502-22-81     -2   56   74   0.260  -0.350        0
  4614  1502-48-365     2   56   74   0.260  -0.350        0
  4615  1502-56-20      2   56   74   0.260  -0.350        0
  4616  1502-60-350     2   56   74   0.260  -0.350        0
  4617  1502-66-46     -2   56   74   0.260  -0.350        0
  4618  1502-71-54     -2   56   74   0.260  -0.350        0
  4619  1502-71-365    -2   56   74   0.260  -0.350        0
  4620  1477-8-69       2   57   73  -0.240   0.100        0
  4621  1477-12-96      2   57   73  -0.240   0.100        0
  4622  1477-17-86      2   57   73  -0.240   0.100        0
  4623  1477-22-81      2   57   73  -0.240   0.100        0
  4624  1477-32-60      2   57   73  -0.240   0.100        0
  4625  1458-17-85      2   57   74   0.250  -0.410        0
  4626  1458-22-81      2   57   74   0.250  -0.410        0
  4627  1458-42-355     2   57   74   0.250  -0.410        0
  4628  1458-48-350     2   57   74   0.250  -0.410        0
  4629  1458-56-20      2   57   74   0.250  -0.410        0
  4630  1458-60-350     2   57   74   0.250  -0.410        0
  4631  1458-71-64      2   57   74   0.250  -0.410        0
  4632  1458-71-365     2   57   74   0.250  -0.410        0
  4633  1460-66-1       2   57   74   0.250  -0.440        0
  4634  1460-71-64      2   57   74   0.250  -0.440        0
  4635  1460-71-365     2   57   74   0.250  -0.440        0
  4636  1429-17-85     -2   58   74   0.100  -0.440        0
  4637  1429-22-81     -2   58   74   0.100  -0.440        0
  4638  1429-42-355    -2   58   74   0.100  -0.440        0
  4639  1429-48-350    -2   58   74   0.100  -0.440        0
  4640  1429-56-20     -2   58   74   0.100  -0.440        0
  4641  1429-60-350    -2   58   74   0.100  -0.440        0
  4642  1429-66-53     -2   58   74   0.100  -0.440        0
  4643  1429-71-13     -2   58   74   0.100  -0.440        0
  4644  1429-71-365    -2   58   74   0.100  -0.440        0
  4645  1431-17-85      2   58   75   0.130  -0.370        0
  4646  1431-22-82      2   58   75   0.130  -0.370        0
  4647  1431-27-63      2   58   75   0.130  -0.370        0
  4648  1431-32-60      2   58   75   0.130  -0.370        0
  4649  1431-42-355     2   58   75   0.130  -0.370        0
  4650  1431-48-350     2   58   75   0.130  -0.370        0
  4651  1431-56-20      2   58   75   0.130  -0.370        0
  4652  1431-60-350     2   58   75   0.130  -0.370        0
  4653  1431-71-13      2   58   75   0.130  -0.370        0
  4654  1431-71-365     2   58   75   0.130  -0.370        0
  4655  1392-16-363    -2   59   73   0.320  -0.060        0
  4656  1397-22-80     -2   59   68   0.290   0.090        0
  4657  1397-42-355    -2   59   68   0.290   0.090        0
  4658  1397-48-355    -2   59   68   0.290   0.090        0
  4659  1397-55-361    -2   59   68   0.290   0.090        0
  4660  1397-61-14     -2   59   68   0.290   0.090        0
  4661  1397-66-12     -2   59   68   0.290   0.090        0
  4662  1397-71-68     -2   59   68   0.290   0.090        0
  4663  1397-71-365    -2   59   68   0.290   0.090        0
  4664  1426-12-95     -2   58   66   0.290   0.470        0
  4665  1426-17-82     -2   58   66   0.290   0.470        0
  4666  1426-22-80     -2   58   66   0.290   0.470        0
  4667  1426-26-288    -2   58   66   0.290   0.470        0
  4668  1426-42-356    -2   58   66   0.290   0.470        0
  4669  1426-48-355    -2   58   66   0.290   0.470        0
  4670  1426-55-350    -2   58   66   0.290   0.470        0
  4671  1426-61-13     -2   58   66   0.290   0.470        0
  4672  1426-66-12     -2   58   66   0.290   0.470        0
  4673  1426-71-54     -2   58   66   0.290   0.470        0
  4674  1426-71-365    -2   58   66   0.290   0.470        0
  4675  1411-56-25      1   59   66  -0.250  -0.220        0
  4676  1411-61-42      1   59   66  -0.250  -0.220        0
  4677  1411-66-12      1   59   66  -0.250  -0.220        0
  4678  1411-71-54      1   59   66  -0.250  -0.220        0
  4679  1411-71-365     1   59   66  -0.250  -0.220        0
  4680  1409-61-42     -2   59   66  -0.130  -0.180        0
  4681  1409-66-12     -2   59   66  -0.130  -0.180        0
  4682  1409-71-54     -2   59   66  -0.130  -0.180        0
  4683  1409-71-365    -2   59   66  -0.130  -0.180        0
  4684  1390-71-68     -2   60   65  -0.440  -0.360        0
  4685  1390-71-362    -2   60   65  -0.440  -0.360        0
  4686  1416-71-1      -2   59   63  -0.320  -0.110        0
  4687  1372-66-5       1   60   65   0.210   0.130        0
  4688  1372-71-68      1   60   65   0.210   0.130        0
  4689  1372-71-362     1   60   65   0.210   0.130        0
  4690  1312-12-265     1   61   66   0.320   0.440        0
  4691  1332-71-13      2   61   68  -0.030  -0.260        0
  4692  1332-71-362     2   61   68  -0.030  -0.260        0
  4693  1359-32-69     -2   60   73   0.200  -0.410        0
  4694  1359-37-95     -2   60   73   0.200  -0.410        0
  4695  1359-42-356    -2   60   73   0.200  -0.410        0
  4696  1359-48-334    -2   60   73   0.200  -0.410        0
  4697  1359-56-19     -2   60   73   0.200  -0.410        0
  4698  1359-60-321    -2   60   73   0.200  -0.410        0
  4699  1359-65-298    -2   60   73   0.200  -0.410        0
  4700  1359-71-14     -2   60   73   0.200  -0.410        0
  4701  1359-71-365    -2   60   73   0.200  -0.410        0
  4702  1333-7-28      -2   61   73  -0.230  -0.450        0
  4703  1333-12-95     -2   61   73  -0.230  -0.450        0
  4704  1333-17-87     -2   61   73  -0.230  -0.450        0
  4705  1333-32-69     -2   61   73  -0.230  -0.450        0
  4706  1333-56-19      2   61   73  -0.230  -0.450        0
  4707  1333-61-60      2   61   73  -0.230  -0.450        0
  4708  1333-66-25      2   61   73  -0.230  -0.450        0
  4709  1355-32-69      2   61   75  -0.500  -0.490        0
  4710  1355-37-95      2   61   75  -0.500  -0.490        0
  4711  1355-42-356     2   61   75  -0.500  -0.490        0
  4712  1355-48-344     2   61   75  -0.500  -0.490        0
  4713  1355-56-19      2   61   75  -0.500  -0.490        0
  4714  1355-61-60      2   61   75  -0.500  -0.490        0
  4715  1355-66-25      2   61   75  -0.500  -0.490        0
  4716  1355-71-40      2   61   75  -0.500  -0.490        0
  4717  1295-32-69      1   62   73  -0.150  -0.020        0
  4718  1295-37-95      1   62   73  -0.150  -0.020        0
  4719  1295-42-355     1   62   73  -0.150  -0.020        0
  4720  1295-56-19      1   62   73  -0.150  -0.020        0
  4721  1295-61-60      1   62   73  -0.150  -0.020        0
  4722  1289-48-344     2   62   74  -0.230   0.280        0
  4723  1289-56-20      2   62   74  -0.230   0.280        0
  4724  1289-61-60      2   62   74  -0.230   0.280        0
  4725  1289-66-25      2   62   74  -0.230   0.280        0
  4726  1289-71-40      2   62   74  -0.230   0.280        0
  4727  1856-33-79      2   51   86   0.150   0.140        0
  4728  1866-42-356     2   51   87   0.150  -0.440        0
  4729  1866-48-348     2   51   87   0.150  -0.440        0
  4730  1866-55-347     2   51   87   0.150  -0.440        0
  4731  1866-60-356     2   51   87   0.150  -0.440        0
  4732  1866-66-5      -2   51   87   0.150  -0.440        0
  4733  1866-71-39     -2   51   87   0.150  -0.440        0
  4734  1866-71-41     -2   51   87   0.150  -0.440        0
  4735  1866-71-365    -2   51   87   0.150  -0.440        0
  4736  1859-55-347     2   51   87   0.110  -0.440        0
  4737  1859-66-33     -2   51   87   0.110  -0.440        0
  4738  1860-42-356     2   51   87   0.110  -0.440        0
  4739  1860-48-348     2   51   87   0.110  -0.440        0
  4740  1860-56-5       2   51   87   0.110  -0.440        0
  4741  1860-66-5       2   51   87   0.110  -0.440        0
  4742  1860-71-365     2   51   87   0.110  -0.440        0
  4743  1867-66-5       2   51   87   0.110  -0.470        0
  4744  1867-71-365     2   51   87   0.110  -0.470        0
  4745  1855-66-5       2   51   87   0.150  -0.440        0
  4746  1855-71-365     2   51   87   0.150  -0.440        0
  4747  1876-42-362     2   51   85  -0.040   0.290        0
  4748  1876-48-338     2   51   85  -0.040   0.290        0
  4749  1876-56-16      2   51   85  -0.040   0.290        0
  4750  1750-56-16      2   52   85  -0.120   0.490        0
  4751  1750-61-53      2   52   85  -0.120   0.490        0
  4752  1750-66-27      2   52   85  -0.120   0.490        0
  4753  1730-56-16      2   52   86   0.110  -0.410        0
  4754  1730-61-53      2   52   86   0.110  -0.410        0
  4755  1730-66-31      2   52   86   0.110  -0.410        0
  4756  1835-22-32      2   51   86   0.380   0.460        0
  4757  1835-27-12      2   51   86   0.380   0.460        0
  4758  1831-1-365      2   51   87   0.410  -0.440        0
  4759  1801-22-32      2   52   86  -0.390   0.200        0
  4760  1801-27-12      2   52   86  -0.390   0.200        0
  4761  1739-56-16      2   52   86  -0.050  -0.410        0
  4762  1739-61-53      2   52   86  -0.050  -0.410        0
  4763  1739-66-27      2   52   86  -0.050  -0.410        0
  4764  1725-66-12      2   52   83   0.190   0.080        0
  4765  1725-71-365     2   52   83   0.190   0.080        0
  4766  1761-27-17      2   52   85  -0.200  -0.420        0
  4767  1761-32-60      2   52   85  -0.200  -0.420        0
  4768  1761-42-355     2   52   85  -0.200  -0.420        0
  4769  1761-48-350     2   52   85  -0.200  -0.420        0
  4770  1761-56-6       2   52   85  -0.200  -0.420        0
  4771  1761-66-1       2   52   85  -0.200  -0.420        0
  4772  1761-71-35      2   52   85  -0.200  -0.420        0
  4773  1761-71-365     2   52   85  -0.200  -0.420        0
  4774  1774-48-365    -2   52   85  -0.240  -0.460        0
  4775  1774-56-5      -2   52   85  -0.240  -0.460        0
  4776  1774-66-1      -2   52   85  -0.240  -0.460        0
  4777  1774-71-35     -2   52   85  -0.240  -0.460        0
  4778  1774-71-365    -2   52   85  -0.240  -0.460        0
  4779  1740-1-365      1   52   84   0.030   0.380        0
  4780  1740-16-356     1   52   84   0.030   0.380        0
  4781  1853-42-357    -2   51   82   0.190   0.490        0
  4782  1850-48-338     2   51   82   0.190   0.230        0
  4783  1850-56-16      2   51   82   0.190   0.230        0
  4784  1850-66-31      2   51   82   0.190   0.230        0
  4785  1850-71-40      2   51   82   0.190   0.230        0
  4786  1895-16-362     2   51   81  -0.380  -0.300        0
  4787  1895-22-32      2   51   81  -0.380  -0.300        0
  4788  1895-27-12      2   51   81  -0.380  -0.300        0
  4789  1737-43-32      2   52   81   0.080   0.260        0
  4790  1737-48-355     2   52   81   0.080   0.260        0
  4791  1737-56-5       2   52   81   0.080   0.260        0
  4792  1737-61-26      2   52   81   0.080   0.260        0
  4793  1737-66-28      2   52   81   0.080   0.260        0
  4794  1737-71-35      2   52   81   0.080   0.260        0
  4795  1737-71-365     2   52   81   0.080   0.260        0
  4796  1802-1-276      1   52   82  -0.380  -0.030        0
  4797  1802-4-104      1   52   82  -0.380  -0.030        0
  4798  1746-42-355     2   52   82   0.150   0.110        0
  4799  1746-48-355     2   52   82   0.150   0.110        0
  4800  1746-56-11      2   52   82   0.150   0.110        0
  4801  1746-61-33      2   52   82   0.150   0.110        0
  4802  1746-66-28      2   52   82   0.150   0.110        0
  4803  1746-71-33      2   52   82   0.150   0.110        0
  4804  1746-71-344     2   52   82   0.150   0.110        0
  4805  1940-42-355    -2   50   80   0.280  -0.400        0
  4806  1940-48-355    -2   50   80   0.280  -0.400        0
  4807  1940-56-5      -2   50   80   0.280  -0.400        0
  4808  1940-66-1      -2   50   80   0.280  -0.400        0
  4809  1940-71-35     -2   50   80   0.280  -0.400        0
  4810  1940-71-365    -2   50   80   0.280  -0.400        0
  4811  1925-48-355     2   50   79   0.200   0.470        0
  4812  1925-56-5       2   50   79   0.200   0.470        0
  4813  1925-61-26      2   50   79   0.200   0.470        0
  4814  1925-66-32      2   50   79   0.200   0.470        0
  4815  1925-71-35      2   50   79   0.200   0.470        0
  4816  1925-71-365     2   50   79   0.200   0.470        0
  4817  1733-2-93       1   52   79   0.120  -0.280        0
  4818  1732-12-114     2   52   79   0.080  -0.020        0
  4819  1732-16-362     2   52   79   0.080  -0.020        0
  4820  1732-27-90      2   52   79   0.080  -0.020        0
  4821  1732-32-60      2   52   79   0.080  -0.020        0
  4822  1732-42-357     2   52   79   0.080  -0.020        0
  4823  1732-48-341     2   52   79   0.080  -0.020        0
  4824  1732-56-16      2   52   79   0.080  -0.020        0
  4825  1809-48-355     2   52   80  -0.420   0.480        0
  4826  1809-55-346     2   52   80  -0.420   0.480        0
  4827  1809-60-364     2   52   80  -0.420   0.480        0
  4828  1809-66-28      2   52   80  -0.420   0.480        0
  4829  1809-71-39      2   52   80  -0.420   0.480        0
  4830  1809-71-365     2   52   80  -0.420   0.480        0
  4831  1731-56-5       2   52   81   0.040  -0.460        0
  4832  1731-60-351     2   52   81   0.040  -0.460        0
  4833  1731-65-364     2   52   81   0.040  -0.460        0
  4834  1731-71-35      2   52   81   0.040  -0.460        0
  4835  1731-71-365     2   52   81   0.040  -0.460        0
  4836  1915-56-13      2   50   78   0.360   0.100        0
  4837  1915-60-351     2   50   78   0.360   0.100        0
  4838  1915-66-32      2   50   78   0.360   0.100        0
  4839  1915-71-55      2   50   78   0.360   0.100        0
  4840  1915-71-365     2   50   78   0.360   0.100        0
  4841  1869-1-365      1   51   78   0.090  -0.320        0
  4842  1884-1-52       1   51   78  -0.140   0.460        0
  4843  1910-66-32      2   50   77   0.440  -0.360        0
  4844  1910-71-365     2   50   77   0.440  -0.360        0
  4845  1887-66-32      2   51   77  -0.180  -0.360        0
  4846  1887-71-365     2   51   77  -0.180  -0.360        0
  4847  1854-66-48      2   51   77   0.200  -0.160        0
  4848  1885-7-322      1   51   77  -0.140   0.160        0
  4849  1885-12-116     1   51   77  -0.140   0.160        0
  4850  1790-66-48      2   52   78  -0.340  -0.420        0
  4851  1836-66-48      2   51   77   0.390  -0.390        0
  4852  1783-66-48      2   52   77  -0.300  -0.160        0
  4853  1846-48-355     2   52   78  -0.380   0.430        0
  4854  1846-55-327     2   52   78  -0.380   0.430        0
  4855  1846-61-14      2   52   78  -0.380   0.430        0
  4856  1846-66-48      2   52   78  -0.380   0.430        0
  4857  1846-71-365     2   52   78  -0.380   0.430        0
  4858  1845-48-355     2   51   78   0.320  -0.120        0
  4859  1845-55-360     2   51   78   0.320  -0.120        0
  4860  1845-61-11      2   51   78   0.320  -0.120        0
  4861  1845-66-32      2   51   78   0.320  -0.120        0
  4862  1845-71-365     2   51   78   0.320  -0.120        0
  4863  1916-56-5      -2   50   76   0.320   0.250        0
  4864  1916-66-32     -2   50   76   0.320   0.250        0
  4865  1916-71-365    -2   50   76   0.320   0.250        0
  4866  1911-56-5       2   50   76   0.360   0.250        0
  4867  1911-66-32      2   50   76   0.360   0.250        0
  4868  1911-71-365     2   50   76   0.360   0.250        0
  4869  1897-12-114     2   51   77  -0.410  -0.460        0
  4870  1897-27-10      2   51   77  -0.410  -0.460        0
  4871  1893-66-32      2   51   76  -0.330   0.310        0
  4872  1893-71-365     2   51   76  -0.330   0.310        0
  4873  1917-48-355     2   50   75   0.360  -0.150        0
  4874  1917-66-32      2   50   75   0.360  -0.150        0
  4875  1917-71-344     2   50   75   0.360  -0.150        0
  4876  1672-66-45      2   53   76  -0.300  -0.300        0
  4877  1647-12-332     2   53   76   0.350  -0.400        0
  4878  1647-16-355     2   53   76   0.350  -0.400        0
  4879  1659-22-81     -2   53   76   0.120   0.090        0
  4880  1659-42-356    -2   53   76   0.120   0.090        0
  4881  1659-48-355     2   53   76   0.120   0.090        0
  4882  1659-56-6       2   53   76   0.120   0.090        0
  4883  1659-60-354     2   53   76   0.120   0.090        0
  4884  1659-66-45     -2   53   76   0.120   0.090        0
  4885  1659-71-365    -2   53   76   0.120   0.090        0
  4886  1682-48-355     2   52   75   0.430   0.080        0
  4887  1707-42-355     2   52   75   0.430   0.080        0
  4888  1707-48-355     2   52   75   0.430   0.080        0
  4889  1707-56-26      2   52   75   0.430   0.080        0
  4890  1707-60-354     2   52   75   0.430   0.080        0
  4891  1707-66-45      2   52   75   0.430   0.080        0
  4892  1707-71-365     2   52   75   0.430   0.080        0
  4893  1712-42-355     2   52   75   0.350  -0.080        0
  4894  1712-48-355     2   52   75   0.350  -0.080        0
  4895  1712-56-5       2   52   75   0.350  -0.080        0
  4896  1712-61-14      2   52   75   0.350  -0.080        0
  4897  1712-65-355     2   52   75   0.350  -0.080        0
  4898  1712-71-67      2   52   75   0.350  -0.080        0
  4899  1712-71-365     2   52   75   0.350  -0.080        0
  4900  1671-22-79     -2   53   75  -0.070   0.280        0
  4901  1671-42-355     2   53   75  -0.070   0.280        0
  4902  1671-48-355     2   53   75  -0.070   0.280        0
  4903  1671-56-20      2   53   75  -0.070   0.280        0
  4904  1627-22-82      2   54   76  -0.460  -0.100        0
  4905  1627-32-90      2   54   76  -0.460  -0.100        0
  4906  1627-37-90      2   54   76  -0.460  -0.100        0
  4907  1627-42-356     2   54   76  -0.460  -0.100        0
  4908  1627-48-350     2   54   76  -0.460  -0.100        0
  4909  1627-55-360     2   54   76  -0.460  -0.100        0
  4910  1627-61-12      2   54   76  -0.460  -0.100        0
  4911  1627-66-1       2   54   76  -0.460  -0.100        0
  4912  1627-71-53      2   54   76  -0.460  -0.100        0
  4913  1627-71-365     2   54   76  -0.460  -0.100        0
  4914  1607-1-276     -2   54   76  -0.120  -0.300        0
  4915  1607-6-269     -2   54   76  -0.120  -0.300        0
  4916  1607-11-269    -2   54   76  -0.120  -0.300        0
  4917  1598-66-45      2   54   76   0.150   0.030        0
  4918  1643-27-90     -2   53   78   0.190   0.370        0
  4919  1632-22-82      2   53   77   0.500   0.070        0
  4920  1632-27-15      2   53   77   0.500   0.070        0
  4921  1632-32-77      2   53   77   0.500   0.070        0
  4922  1632-42-356     2   53   77   0.500   0.070        0
  4923  1632-48-355     2   53   77   0.500   0.070        0
  4924  1632-56-6       2   53   77   0.500   0.070        0
  4925  1632-60-354     2   53   77   0.500   0.070        0
  4926  1632-66-48      2   53   77   0.500   0.070        0
  4927  1632-71-53      2   53   77   0.500   0.070        0
  4928  1632-71-365     2   53   77   0.500   0.070        0
  4929  1677-32-64      2   53   81  -0.080  -0.450        0
  4930  1677-42-355     2   53   81  -0.080  -0.450        0
  4931  1677-48-351     2   53   81  -0.080  -0.450        0
  4932  1677-56-5       2   53   81  -0.080  -0.450        0
  4933  1677-61-26      2   53   81  -0.080  -0.450        0
  4934  1677-66-39      2   53   81  -0.080  -0.450        0
  4935  1677-71-35      2   53   81  -0.080  -0.450        0
  4936  1677-71-365     2   53   81  -0.080  -0.450        0
  4937  1646-27-90      2   53   80   0.070  -0.430        0
  4938  1646-32-64      2   53   80   0.070  -0.430        0
  4939  1646-42-355     2   53   80   0.070  -0.430        0
  4940  1646-48-350     2   53   80   0.070  -0.430        0
  4941  1646-56-5       2   53   80   0.070  -0.430        0
  4942  1646-61-26      2   53   80   0.070  -0.430        0
  4943  1646-66-39      2   53   80   0.070  -0.430        0
  4944  1646-71-39      2   53   80   0.070  -0.430        0
  4945  1646-71-365     2   53   80   0.070  -0.430        0
  4946  1602-42-355     2   54   80  -0.010  -0.270        0
  4947  1602-48-350     2   54   80  -0.010  -0.270        0
  4948  1602-71-35      2   54   80  -0.010  -0.270        0
  4949  1602-71-365     2   54   80  -0.010  -0.270        0
  4950  1601-42-355    -2   54   80  -0.010  -0.230        0
  4951  1601-48-350    -2   54   80  -0.010  -0.230        0
  4952  1601-55-348    -2   54   80  -0.010  -0.230        0
  4953  1601-61-14     -2   54   80  -0.010  -0.230        0
  4954  1601-66-19     -2   54   80  -0.010  -0.230        0
  4955  1601-71-35     -2   54   80  -0.010  -0.230        0
  4956  1601-71-365     2   54   80  -0.010  -0.230        0
  4957  1674-10-253     2   53   82  -0.280   0.140        0
  4958  1676-42-355     2   53   82  -0.240   0.140        0
  4959  1676-48-350     2   53   82  -0.240   0.140        0
  4960  1676-55-349     2   53   82  -0.240   0.140        0
  4961  1676-61-27      2   53   82  -0.240   0.140        0
  4962  1676-66-19      2   53   82  -0.240   0.140        0
  4963  1676-71-35      2   53   82  -0.240   0.140        0
  4964  1676-71-365     2   53   82  -0.240   0.140        0
  4965  1645-32-77      2   53   81   0.190   0.420        0
  4966  1645-42-355     2   53   81   0.190   0.420        0
  4967  1645-55-360     2   53   81   0.190   0.420        0
  4968  1645-60-356     2   53   81   0.190   0.420        0
  4969  1645-66-1       2   53   81   0.190   0.420        0
  4970  1645-71-35      2   53   81   0.190   0.420        0
  4971  1645-71-365     2   53   81   0.190   0.420        0
  4972  1604-32-77      2   54   81  -0.010  -0.320        0
  4973  1604-42-355     2   54   81  -0.010  -0.320        0
  4974  1604-48-350     2   54   81  -0.010  -0.320        0
  4975  1604-55-360     2   54   81  -0.010  -0.320        0
  4976  1604-60-362     2   54   81  -0.010  -0.320        0
  4977  1604-71-48      2   54   81  -0.010  -0.320        0
  4978  1604-71-365     2   54   81  -0.010  -0.320        0
  4979  1640-55-360    -2   53   84   0.220   0.380        0
  4980  1640-60-356    -2   53   84   0.220   0.380        0
  4981  1640-66-19     -2   53   84   0.220   0.380        0
  4982  1640-71-22     -2   53   84   0.220   0.380        0
  4983  1640-71-365    -2   53   84   0.220   0.380        0
  4984  1720-66-5       2   52   86   0.260   0.270        0
  4985  1720-71-22      2   52   86   0.260   0.270        0
  4986  1720-71-365     2   52   86   0.260   0.270        0
  4987  1706-33-318     2   52   85   0.340   0.260        0
  4988  1669-7-32       2   53   85  -0.200  -0.230        0
  4989  1669-12-106     2   53   85  -0.200  -0.230        0
  4990  1669-32-68      2   53   85  -0.200  -0.230        0
  4991  1669-38-60      2   53   85  -0.200  -0.230        0
  4992  1669-42-354     2   53   85  -0.200  -0.230        0
  4993  1622-32-68      2   54   85  -0.400  -0.090        0
  4994  1622-38-60      2   54   85  -0.400  -0.090        0
  4995  1622-42-354     2   54   85  -0.400  -0.090        0
  4996  1622-48-341     2   54   85  -0.400  -0.090        0
  4997  1622-56-17      2   54   85  -0.400  -0.090        0
  4998  1622-61-54      2   54   85  -0.400  -0.090        0
  4999  1622-66-32      2   54   85  -0.400  -0.090        0
  5000  1556-61-27     -2   55   86  -0.100   0.050        0
  5001  1556-66-5      -2   55   86  -0.100   0.050        0
  5002  1556-71-22     -2   55   86  -0.100   0.050        0
  5003  1556-71-365    -2   55   86  -0.100   0.050        0
  5004  1553-7-336      2   55   84  -0.060  -0.230        0
  5005  1553-12-106     2   55   84  -0.060  -0.230        0
  5006  1553-42-354     2   55   84  -0.060  -0.230        0
  5007  1553-48-341     2   55   84  -0.060  -0.230        0
  5008  1568-33-234     2   55   84  -0.100  -0.260        0
  5009  1568-48-341     2   55   84  -0.100  -0.260        0
  5010  1594-71-22      2   54   83   0.290   0.090        0
  5011  1594-71-365     2   54   83   0.290   0.090        0
  5012  1563-32-68      2   55   83  -0.290  -0.170        0
  5013  1563-37-48      2   55   83  -0.290  -0.170        0
  5014  1563-42-355     2   55   83  -0.290  -0.170        0
  5015  1563-48-348     2   55   83  -0.290  -0.170        0
  5016  1563-56-6       2   55   83  -0.290  -0.170        0
  5017  1553-15-99      2   55   84  -0.060  -0.230        0
  5018  1522-42-355     2   55   84   0.480   0.160        0
  5019  1522-48-348     2   55   84   0.480   0.160        0
  5020  1527-55-354    -2   56   84  -0.490   0.190        0
  5021  1527-61-54     -2   56   84  -0.490   0.190        0
  5022  1527-66-32     -2   56   84  -0.490   0.190        0
  5023  1527-71-22     -2   56   84  -0.490   0.190        0
  5024  1527-71-365     2   56   84  -0.490   0.190        0
  5025  1589-42-355     2   54   82   0.480   0.470        0
  5026  1589-48-350     2   54   82   0.480   0.470        0
  5027  1589-55-360     2   54   82   0.480   0.470        0
  5028  1589-61-14      2   54   82   0.480   0.470        0
  5029  1589-66-32      2   54   82   0.480   0.470        0
  5030  1589-71-22      2   54   82   0.480   0.470        0
  5031  1589-71-365     2   54   82   0.480   0.470        0
  5032  1586-32-68      2   54   81   0.490   0.170        0
  5033  1586-48-356     2   54   81   0.490   0.170        0
  5034  1586-56-6       2   54   81   0.490   0.170        0
  5035  1586-60-356     2   54   81   0.490   0.170        0
  5036  1586-66-1       2   54   81   0.490   0.170        0
  5037  1586-71-35      2   54   81   0.490   0.170        0
  5038  1586-71-365     2   54   81   0.490   0.170        0
  5039  1532-42-355     2   55   81   0.180   0.330        0
  5040  1532-48-348     2   55   81   0.180   0.330        0
  5041  1532-55-354     2   55   81   0.180   0.330        0
  5042  1532-61-28      2   55   81   0.180   0.330        0
  5043  1532-66-46      2   55   81   0.180   0.330        0
  5044  1532-71-22      2   55   81   0.180   0.330        0
  5045  1532-71-365     2   55   81   0.180   0.330        0
  5046  1534-42-355     2   55   81   0.440  -0.350        0
  5047  1534-48-348     2   55   81   0.440  -0.350        0
  5048  1534-55-360     2   55   81   0.440  -0.350        0
  5049  1534-61-5       2   55   81   0.440  -0.350        0
  5050  1534-66-46      2   55   81   0.440  -0.350        0
  5051  1534-71-35      2   55   81   0.440  -0.350        0
  5052  1534-71-365     2   55   81   0.440  -0.350        0
  5053  1524-42-355     2   55   82   0.480   0.440        0
  5054  1524-48-348     2   55   82   0.480   0.440        0
  5055  1524-56-6       2   55   82   0.480   0.440        0
  5056  1524-60-356     2   55   82   0.480   0.440        0
  5057  1524-66-1       2   55   82   0.480   0.440        0
  5058  1524-71-48      2   55   82   0.480   0.440        0
  5059  1524-71-365     2   55   82   0.480   0.440        0
  5060  1561-21-340     2   55   80  -0.170  -0.070        0
  5061  1561-32-64      2   55   80  -0.170  -0.070        0
  5062  1561-42-355     2   55   80  -0.170  -0.070        0
  5063  1561-48-350     2   55   80  -0.170  -0.070        0
  5064  1561-55-360     2   55   80  -0.170  -0.070        0
  5065  1561-61-26      2   55   80  -0.170  -0.070        0
  5066  1561-66-46      2   55   80  -0.170  -0.070        0
  5067  1561-71-39      2   55   80  -0.170  -0.070        0
  5068  1561-71-365     2   55   80  -0.170  -0.070        0
  5069  1571-2-94       1   55   79  -0.360   0.250        0
  5070  1572-48-356     2   55   79  -0.390  -0.140        0
  5071  1572-56-6       2   55   79  -0.390  -0.140        0
  5072  1572-61-26      2   55   79  -0.390  -0.140        0
  5073  1572-66-12      2   55   79  -0.390  -0.140        0
  5074  1572-71-48      2   55   79  -0.390  -0.140        0
  5075  1572-71-365     2   55   79  -0.390  -0.140        0
  5076  1549-21-319     2   55   80  -0.050  -0.430        0
  5077  1549-56-6       2   55   80  -0.050  -0.430        0
  5078  1549-60-356     2   55   80  -0.050  -0.430        0
  5079  1549-65-350     2   55   80  -0.050  -0.430        0
  5080  1549-71-67      2   55   80  -0.050  -0.430        0
  5081  1549-71-365     2   55   80  -0.050  -0.430        0
  5082  1547-27-62      2   55   79   0.180   0.150        0
  5083  1521-42-355     2   56   79  -0.210   0.150        0
  5084  1521-48-350     2   56   79  -0.210   0.150        0
  5085  1521-55-360     2   56   79  -0.210   0.150        0
  5086  1521-60-356     2   56   79  -0.210   0.150        0
  5087  1521-66-46      2   56   79  -0.210   0.150        0
  5088  1521-71-48      2   56   79  -0.210   0.150        0
  5089  1521-71-365     2   56   79  -0.210   0.150        0
  5090  1573-48-356     2   55   77  -0.320   0.230        0
  5091  1573-55-360     2   55   77  -0.320   0.230        0
  5092  1573-60-357     2   55   77  -0.320   0.230        0
  5093  1573-66-54      2   55   77  -0.320   0.230        0
  5094  1573-71-19      2   55   77  -0.320   0.230        0
  5095  1573-71-365     2   55   77  -0.320   0.230        0
  5096  1545-32-77     -2   55   77   0.140   0.200        0
  5097  1545-42-356     2   55   77   0.140   0.200        0
  5098  1545-48-350     2   55   77   0.140   0.200        0
  5099  1545-56-11      2   55   77   0.140   0.200        0
  5100  1545-61-14      2   55   77   0.140   0.200        0
  5101  1545-66-54      2   55   77   0.140   0.200        0
  5102  1545-71-19      2   55   77   0.140   0.200        0
  5103  1545-71-365     2   55   77   0.140   0.200        0
  5104  1535-42-356     2   55   78   0.330  -0.440        0
  5105  1535-48-350     2   55   78   0.330  -0.440        0
  5106  1535-56-11      2   55   78   0.330  -0.440        0
  5107  1535-60-357     2   55   78   0.330  -0.440        0
  5108  1535-66-47      2   55   78   0.330  -0.440        0
  5109  1535-71-19      2   55   78   0.330  -0.440        0
  5110  1535-71-365     2   55   78   0.330  -0.440        0
  5111  1507-42-356     2   56   77   0.100   0.070        0
  5112  1507-48-350     2   56   77   0.100   0.070        0
  5113  1507-56-11      2   56   77   0.100   0.070        0
  5114  1507-60-357     2   56   77   0.100   0.070        0
  5115  1507-66-54      2   56   77   0.100   0.070        0
  5116  1507-71-19      2   56   77   0.100   0.070        0
  5117  1507-71-365     2   56   77   0.100   0.070        0
  5118  1523-16-54     -2   56   77  -0.360   0.200        0
  5119  1575-22-81      2   55   76  -0.430   0.350        0
  5120  1575-32-77      2   55   76  -0.430   0.350        0
  5121  1575-42-356     2   55   76  -0.430   0.350        0
  5122  1575-48-350     2   55   76  -0.430   0.350        0
  5123  1575-55-343     2   55   76  -0.430   0.350        0
  5124  1575-61-11      2   55   76  -0.430   0.350        0
  5125  1575-71-365     2   55   76  -0.430   0.350        0
  5126  1577-22-81     -2   55   75  -0.470   0.310        0
  5127  1580-42-355     2   55   75  -0.470   0.310        0
  5128  1580-48-355     2   55   75  -0.470   0.310        0
  5129  1580-56-13      2   55   75  -0.470   0.310        0
  5130  1580-61-12      2   55   75  -0.470   0.310        0
  5131  1580-66-54      2   55   75  -0.470   0.310        0
  5132  1580-71-365     2   55   75  -0.470   0.310        0
  5133  1536-17-79      2   55   75   0.220  -0.080        0
  5134  1536-22-82      2   55   75   0.220  -0.080        0
  5135  1536-32-77      2   55   75   0.220  -0.080        0
  5136  1536-42-356     2   55   75   0.220  -0.080        0
  5137  1536-48-350     2   55   75   0.220  -0.080        0
  5138  1536-55-340     2   55   75   0.220  -0.080        0
  5139  1536-66-54      2   55   75   0.220  -0.080        0
  5140  1536-71-365     2   55   75   0.220  -0.080        0
  5141  1516-42-356     2   56   76  -0.200  -0.430        0
  5142  1516-48-350     2   56   76  -0.200  -0.430        0
  5143  1516-56-11      2   56   76  -0.200  -0.430        0
  5144  1516-61-27      2   56   76  -0.200  -0.430        0
  5145  1516-66-54      2   56   76  -0.200  -0.430        0
  5146  1516-71-365     2   56   76  -0.200  -0.430        0
  5147  1528-22-82      2   55   76   0.380   0.060        0
  5148  1528-27-63      2   55   76   0.380   0.060        0
  5149  1528-32-77      2   55   76   0.380   0.060        0
  5150  1528-65-350     2   55   76   0.380   0.060        0
  5151  1528-71-365     2   55   76   0.380   0.060        0
  5152  1514-42-356     2   56   76  -0.090   0.320        0
  5153  1514-48-350     2   56   76  -0.090   0.320        0
  5154  1514-55-340     2   56   76  -0.090   0.320        0
  5155  1514-61-27      2   56   76  -0.090   0.320        0
  5156  1514-66-54      2   56   76  -0.090   0.320        0
  5157  1514-71-48      2   56   76  -0.090   0.320        0
  5158  1514-71-365     2   56   76  -0.090   0.320        0
  5159  1495-42-356     2   56   77   0.410   0.170        0
  5160  1495-48-350     2   56   77   0.410   0.170        0
  5161  1495-55-343     2   56   77   0.410   0.170        0
  5162  1495-61-41      2   56   77   0.410   0.170        0
  5163  1495-66-54      2   56   77   0.410   0.170        0
  5164  1495-71-19      2   56   77   0.410   0.170        0
  5165  1495-71-365     2   56   77   0.410   0.170        0
  5166  1484-37-343     2   57   77  -0.320  -0.250        0
  5167  1484-42-356     2   57   77  -0.320  -0.250        0
  5168  1484-56-11      2   57   77  -0.320  -0.250        0
  5169  1484-60-357     2   57   77  -0.320  -0.250        0
  5170  1484-66-53      2   57   77  -0.320  -0.250        0
  5171  1484-71-19      2   57   77  -0.320  -0.250        0
  5172  1484-71-365     2   57   77  -0.320  -0.250        0
  5173  1463-56-34      1   57   77   0.100  -0.290        0
  5174  1463-60-357     1   57   77   0.100  -0.290        0
  5175  1463-66-53      1   57   77   0.100  -0.290        0
  5176  1463-71-19      1   57   77   0.100  -0.290        0
  5177  1463-71-365     1   57   77   0.100  -0.290        0
  5178  1483-42-355     2   57   80  -0.220   0.230        0
  5179  1483-48-348     2   57   80  -0.220   0.230        0
  5180  1483-56-6       2   57   80  -0.220   0.230        0
  5181  1483-60-357     2   57   80  -0.220   0.230        0
  5182  1483-66-46      2   57   80  -0.220   0.230        0
  5183  1483-71-35      2   57   80  -0.220   0.230        0
  5184  1483-71-365     2   57   80  -0.220   0.230        0
  5185  1437-16-300    -2   58   80  -0.260  -0.450        0
  5186  1437-22-32     -2   58   80  -0.260  -0.450        0
  5187  1437-27-12     -2   58   80  -0.260  -0.450        0
  5188  1438-42-362     2   58   79  -0.330   0.090        0
  5189  1438-56-20      2   58   79  -0.330   0.090        0
  5190  1438-61-53      2   58   79  -0.330   0.090        0
  5191  1438-66-32      2   58   79  -0.330   0.090        0
  5192  1438-71-40      2   58   79  -0.330   0.090        0
  5193  1445-27-76      2   57   81   0.470  -0.410        0
  5194  1445-32-55      2   57   81   0.470  -0.410        0
  5195  1445-42-356     2   57   81   0.470  -0.410        0
  5196  1445-48-348     2   57   81   0.470  -0.410        0
  5197  1445-55-360     2   57   81   0.470  -0.410        0
  5198  1445-60-357     2   57   81   0.470  -0.410        0
  5199  1445-66-1       2   57   81   0.470  -0.410        0
  5200  1445-71-35      2   57   81   0.470  -0.410        0
  5201  1445-71-365     2   57   81   0.470  -0.410        0
  5202  1489-32-63      2   57   82  -0.410  -0.370        0
  5203  1489-42-355     2   57   82  -0.410  -0.370        0
  5204  1489-48-348     2   57   82  -0.410  -0.370        0
  5205  1489-55-353     2   57   82  -0.410  -0.370        0
  5206  1489-61-28      2   57   82  -0.410  -0.370        0
  5207  1489-66-39      2   57   82  -0.410  -0.370        0
  5208  1489-71-22      2   57   82  -0.410  -0.370        0
  5209  1489-71-365     2   57   82  -0.410  -0.370        0
  5210  1469-42-355     2   57   82   0.090   0.410        0
  5211  1469-48-348     2   57   82   0.090   0.410        0
  5212  1469-55-357     2   57   82   0.090   0.410        0
  5213  1469-61-54      2   57   82   0.090   0.410        0
  5214  1494-66-46      2   56   83   0.360  -0.460        0
  5215  1469-71-71      2   57   82   0.090   0.410        0
  5216  1469-71-365     2   57   82   0.090   0.410        0
  5217  1464-12-102     2   57   83   0.010  -0.170        0
  5218  1464-32-63      2   57   83   0.010  -0.170        0
  5219  1464-42-354     2   57   83   0.010  -0.170        0
  5220  1439-37-90      2   58   83  -0.380  -0.300        0
  5221  1439-42-355     2   58   83  -0.380  -0.300        0
  5222  1439-48-348     2   58   83  -0.380  -0.300        0
  5223  1439-56-6       2   58   83  -0.380  -0.300        0
  5224  1439-61-28      2   58   83  -0.380  -0.300        0
  5225  1439-66-46      2   58   83  -0.380  -0.300        0
  5226  1439-71-71      2   58   83  -0.380  -0.300        0
  5227  1439-71-365     2   58   83  -0.380  -0.300        0
  5228  1435-42-355     2   58   83  -0.150   0.000        0
  5229  1435-48-348     2   58   83  -0.150   0.000        0
  5230  1435-55-361     2   58   83  -0.150   0.000        0
  5231  1435-61-11      2   58   83  -0.150   0.000        0
  5232  1435-66-49      2   58   83  -0.150   0.000        0
  5233  1435-71-71      2   58   83  -0.150   0.000        0
  5234  1435-71-365     2   58   83  -0.150   0.000        0
  5235  1449-37-30     -2   57   85   0.350  -0.050        0
  5236  1414-7-138      2   59   85  -0.470   0.210        0
  5237  1414-32-64      2   59   85  -0.470   0.210        0
  5238  1414-38-60      2   59   85  -0.470   0.210        0
  5239  1414-42-354     2   59   85  -0.470   0.210        0
  5240  1379-71-356     2   60   85  -0.130  -0.310        0
  5241  1425-2-94       2   58   84   0.380   0.040        0
  5242  1425-16-359     2   58   84   0.380   0.040        0
  5243  1425-22-32      2   58   84   0.380   0.040        0
  5244  1425-27-12      2   58   84   0.380   0.040        0
  5245  1382-42-355     2   60   83  -0.350  -0.330        0
  5246  1382-48-348     2   60   83  -0.350  -0.330        0
  5247  1382-56-6       2   60   83  -0.350  -0.330        0
  5248  1382-61-54      2   60   83  -0.350  -0.330        0
  5249  1382-66-46      2   60   83  -0.350  -0.330        0
  5250  1382-71-22      2   60   83  -0.350  -0.330        0
  5251  1382-71-365     2   60   83  -0.350  -0.330        0
  5252  1413-32-64     -2   59   80  -0.220  -0.390        0
  5253  1413-37-48     -2   59   80  -0.220  -0.390        0
  5254  1413-56-6       2   59   80  -0.220  -0.390        0
  5255  1413-61-26      2   59   80  -0.220  -0.390        0
  5256  1413-66-53      2   59   80  -0.220  -0.390        0
  5257  1413-71-48      2   59   80  -0.220  -0.390        0
  5258  1395-32-64      2   59   79   0.390   0.000        0
  5259  1395-42-355     2   59   79   0.390   0.000        0
  5260  1395-48-348     2   59   79   0.390   0.000        0
  5261  1395-56-6       2   59   79   0.390   0.000        0
  5262  1395-61-26      2   59   79   0.390   0.000        0
  5263  1395-66-1       2   59   79   0.390   0.000        0
  5264  1395-71-48      2   59   79   0.390   0.000        0
  5265  1395-71-365     2   59   79   0.390   0.000        0
  5266  1377-35-16      2   60   79   0.080  -0.260        0
  5267  1377-42-355     2   60   79   0.080  -0.260        0
  5268  1377-48-348     2   60   79   0.080  -0.260        0
  5269  1377-56-6       2   60   79   0.080  -0.260        0
  5270  1377-61-26      2   60   79   0.080  -0.260        0
  5271  1377-66-53      2   60   79   0.080  -0.260        0
  5272  1377-71-365     2   60   79   0.080  -0.260        0
  5273  1394-42-355     2   59   80   0.270   0.490        0
  5274  1394-48-348     2   59   80   0.270   0.490        0
  5275  1394-56-6       2   59   80   0.270   0.490        0
  5276  1394-61-26      2   59   80   0.270   0.490        0
  5277  1394-66-53      2   59   80   0.270   0.490        0
  5278  1394-71-365     2   59   80   0.270   0.490        0
  5279  1375-32-64      2   60   81   0.150  -0.470        0
  5280  1375-42-355     2   60   81   0.150  -0.470        0
  5281  1375-48-348     2   60   81   0.150  -0.470        0
  5282  1375-56-6       2   60   81   0.150  -0.470        0
  5283  1375-61-26      2   60   81   0.150  -0.470        0
  5284  1375-66-53      2   60   81   0.150  -0.470        0
  5285  1375-71-365     2   60   81   0.150  -0.470        0
  5286  1396-17-90      2   59   77   0.280  -0.350        0
  5287  1396-22-81      2   59   77   0.280  -0.350        0
  5288  1396-32-63      2   59   77   0.280  -0.350        0
  5289  1396-42-355     2   59   77   0.280  -0.350        0
  5290  1396-48-350     2   59   77   0.280  -0.350        0
  5291  1396-56-11      2   59   77   0.280  -0.350        0
  5292  1396-61-26      2   59   77   0.280  -0.350        0
  5293  1396-66-53      2   59   77   0.280  -0.350        0
  5294  1396-71-365     2   59   77   0.280  -0.350        0
  5295  1415-22-82      1   59   76  -0.450  -0.160        0
  5296  1415-32-63      1   59   76  -0.450  -0.160        0
  5297  1415-37-90      2   59   76  -0.450  -0.160        0
  5298  1415-42-355     2   59   76  -0.450  -0.160        0
  5299  1415-48-350     2   59   76  -0.450  -0.160        0
  5300  1415-56-11      2   59   76  -0.450  -0.160        0
  5301  1415-61-27      2   59   76  -0.450  -0.160        0
  5302  1415-66-49      2   59   76  -0.450  -0.160        0
  5303  1415-71-365     2   59   76  -0.450  -0.160        0
  5304  1323-2-88       2   61   78   0.110  -0.210        0
  5305  1368-17-85     -2   60   77   0.310  -0.350        0
  5306  1368-22-81     -2   60   77   0.310  -0.350        0
  5307  1368-27-15      2   60   77   0.310  -0.350        0
  5308  1368-42-355     2   60   77   0.310  -0.350        0
  5309  1368-55-339     2   60   77   0.310  -0.350        0
  5310  1368-66-49     -2   60   77   0.310  -0.350        0
  5311  1368-71-365    -2   60   77   0.310  -0.350        0
  5312  1327-71-365     2   61   80   0.030   0.110        0
  5313  1369-71-365     2   60   79   0.270   0.490        0
  5314  1326-71-365     2   61   79   0.070   0.390        0
  5315  1302-71-365     2   62   80  -0.430  -0.380        0
  5316  1269-37-48      2   62   83   0.140  -0.420        0
  5317  1269-66-1       2   62   83   0.140  -0.420        0
  5318  1269-71-365     2   62   83   0.140  -0.420        0
  5319  1277-66-59      2   62   83   0.100  -0.420        0
  5320  1330-48-345     2   61   83  -0.010  -0.060        0
  5321  1330-56-17      2   61   83  -0.010  -0.060        0
  5322  1322-2-94       2   61   83   0.100  -0.190        0
  5323  1331-48-345     2   61   83  -0.130   0.290        0
  5324  1331-56-17      2   61   83  -0.130   0.290        0
  5325  1331-61-54      2   61   83  -0.130   0.290        0
  5326  1331-66-32      2   61   83  -0.130   0.290        0
  5327  1331-71-40      2   61   83  -0.130   0.290        0
  5328  1276-12-99      2   62   84   0.130   0.470        0
  5329  1276-17-90      2   62   84   0.130   0.470        0
  5330  1771-33-65      3   52   91  -0.250   0.150        0
  5331  1880-42-356     3   52   91  -0.140  -0.180        0
  5332  1880-48-335     3   52   91  -0.140  -0.180        0
  5333  1880-61-60      3   52   91  -0.140  -0.180        0
  5334  1880-66-25      3   52   91  -0.140  -0.180        0
  5335  1735-34-152     3   52   91   0.050  -0.020        0
  5336  1840-16-362     2   51   89   0.330   0.260        0
  5337  1794-3-36       1   51   91   0.400  -0.440        0
  5338  1794-16-362     1   51   91   0.400  -0.440        0
  5339  1794-27-12      1   51   91   0.400  -0.440        0
  5340  1794-71-39      1   51   91   0.400  -0.440        0
  5341  1794-71-365     1   51   91   0.400  -0.440        0
  5342  1796-16-362     3   52   90  -0.400  -0.190        0
  5343  1806-55-348     3   52   90  -0.440   0.140        0
  5344  1806-60-364     3   52   90  -0.440   0.140        0
  5345  1806-66-1       3   52   90  -0.440   0.140        0
  5346  1806-71-39      3   52   90  -0.440   0.140        0
  5347  1806-71-365     3   52   90  -0.440   0.140        0
  5348  1788-55-348     2   52   90  -0.360   0.140        0
  5349  1788-60-364     2   52   90  -0.360   0.140        0
  5350  1788-66-21      2   52   90  -0.360   0.140        0
  5351  1788-71-39      2   52   90  -0.360   0.140        0
  5352  1788-71-365     2   52   90  -0.360   0.140        0
  5353  1782-42-355     3   52   90  -0.330   0.140        0
  5354  1782-48-348     3   52   90  -0.330   0.140        0
  5355  1782-55-348     3   52   90  -0.330   0.140        0
  5356  1782-60-364     3   52   90  -0.330   0.140        0
  5357  1782-66-28      3   52   90  -0.330   0.140        0
  5358  1782-71-39      2   52   90  -0.330   0.140        0
  5359  1782-71-365     2   52   90  -0.330   0.140        0
  5360  1807-66-28      2   52   90  -0.440   0.140        0
  5361  1807-71-39      2   52   90  -0.440   0.140        0
  5362  1807-71-365     2   52   90  -0.440   0.140        0
  5363  1896-55-348     2   51   87  -0.430   0.400        0
  5364  1881-71-39      2   51   88  -0.200  -0.370        0
  5365  1881-71-365     2   51   88  -0.200  -0.370        0
  5366  1841-1-357      2   51   87   0.340  -0.210        0
  5367  1773-34-91      2   52   87  -0.240   0.410        0
  5368  1821-48-302     2   51   88   0.490   0.280        0
  5369  1798-16-362     2   52   88  -0.400   0.280        0
  5370  1797-48-348     2   52   89  -0.400  -0.390        0
  5371  1797-55-348     2   52   89  -0.400  -0.390        0
  5372  1797-60-354     2   52   89  -0.400  -0.390        0
  5373  1797-66-28      2   52   89  -0.400  -0.390        0
  5374  1797-71-39      2   52   89  -0.400  -0.390        0
  5375  1797-71-365     2   52   89  -0.400  -0.390        0
  5376  1789-42-356     2   52   89  -0.360  -0.390        0
  5377  1789-55-348     2   52   89  -0.360  -0.390        0
  5378  1789-60-364     2   52   89  -0.360  -0.390        0
  5379  1789-66-28      2   52   89  -0.360  -0.390        0
  5380  1789-71-39      2   52   89  -0.360  -0.390        0
  5381  1789-71-365     2   52   89  -0.360  -0.390        0
  5382  1780-66-28      2   52   89  -0.400  -0.390        0
  5383  1780-71-39      2   52   89  -0.400  -0.390        0
  5384  1780-71-365     2   52   89  -0.400  -0.390        0
  5385  1799-42-356     2   52   88  -0.400  -0.270        0
  5386  1799-48-335     2   52   88  -0.400  -0.270        0
  5387  1736-34-152     2   52   88   0.060  -0.170        0
  5388  1613-42-355     2   54   87  -0.250  -0.140        0
  5389  1613-48-348     2   54   87  -0.250  -0.140        0
  5390  1613-55-348     2   54   87  -0.250  -0.140        0
  5391  1613-61-41      2   54   87  -0.250  -0.140        0
  5392  1613-66-12      2   54   87  -0.250  -0.140        0
  5393  1613-71-22      2   54   87  -0.250  -0.140        0
  5394  1613-71-365     2   54   87  -0.250  -0.140        0
  5395  1606-55-348     2   54   87  -0.020   0.150        0
  5396  1606-61-41      2   54   87  -0.020   0.150        0
  5397  1606-66-12      2   54   87  -0.020   0.150        0
  5398  1606-71-22      2   54   87  -0.020   0.150        0
  5399  1606-71-365     2   54   87  -0.020   0.150        0
  5400  1620-2-90       2   54   88  -0.370  -0.230        0
  5401  1620-12-324     2   54   88  -0.370  -0.230        0
  5402  1620-16-362     2   54   88  -0.370  -0.230        0
  5403  1705-48-335     2   52   92   0.320   0.320        0
  5404  1705-56-16      2   52   92   0.320   0.320        0
  5405  1705-61-60      2   52   92   0.320   0.320        0
  5406  1705-66-25      2   52   92   0.320   0.320        0
  5407  1530-48-335     3   55   88   0.350   0.200        0
  5408  1530-56-16      3   55   88   0.350   0.200        0
  5409  1530-61-60      3   55   88   0.350   0.200        0
  5410  1434-37-27      3   58   87  -0.310  -0.360        0
  5411  1434-42-356     3   58   87  -0.310  -0.360        0
  5412  1434-56-17      3   58   87  -0.310  -0.360        0
  5413  1434-60-321     3   58   87  -0.310  -0.360        0
  5414  1434-65-298     3   58   87  -0.310  -0.360        0
  5415  1434-71-365     3   58   87  -0.310  -0.360        0
  5416  1384-48-335     3   59   88   0.480  -0.050        0
  5417  1344-48-348     3   61   87  -0.290   0.330        0
  5418  1344-55-348     3   61   87  -0.290   0.330        0
  5419  1344-61-41      3   61   87  -0.290   0.330        0
  5420  1344-66-5       3   61   87  -0.290   0.330        0
  5421  1344-71-356     3   61   87  -0.290   0.330        0
  5422  1354-2-93       2   61   87  -0.480  -0.260        0
  5423  1354-7-52       2   61   87  -0.480  -0.260        0
  5424  1354-12-102     2   61   87  -0.480  -0.260        0
  5425  1354-17-71      2   61   87  -0.480  -0.260        0
  5426  1354-22-32      2   61   87  -0.480  -0.260        0
  5427  1354-32-90      2   61   87  -0.480  -0.260        0
  5428  1354-38-60      2   61   87  -0.480  -0.260        0
  5429  1358-32-90      3   61   87  -0.290  -0.350        0
  5430  1358-48-336     3   61   87  -0.290  -0.350        0
  5431  846-17-5        3   73   19  -0.300  -0.090        0
  5432  846-22-33       3   73   19  -0.300  -0.090        0
  5433  846-48-348      3   73   19  -0.300  -0.090        0
  5434  846-61-25       3   73   19  -0.300  -0.090        0
  5435  846-65-362      3   73   19  -0.300  -0.090        0
  5436  846-71-365      3   73   19  -0.300  -0.090        0
  5437  829-48-348      3   74   18  -0.310   0.420        0
  5438  829-55-353      3   74   18  -0.310   0.420        0
  5439  829-61-35       3   74   18  -0.310   0.420        0
  5440  829-65-362      3   74   18  -0.310   0.420        0
  5441  829-71-365      3   74   18  -0.310   0.420        0
  5442  839-12-121     -2   73   19   0.310   0.010        0
  5443  839-71-365     -2   73   19   0.310   0.010        0
  5444  817-1-220       2   74   19   0.080   0.140        0
  5445  817-6-331       2   74   19   0.080   0.140        0
  5446  817-12-8        2   74   19   0.080   0.140        0
  5447  813-32-87       3   74   19   0.110  -0.420        0
  5448  813-37-33       3   74   19   0.110  -0.420        0
  5449  813-42-350      3   74   19   0.110  -0.420        0
  5450  813-48-348      3   74   19   0.110  -0.420        0
  5451  813-56-17       3   74   19   0.110  -0.420        0
  5452  813-60-323      3   74   19   0.110  -0.420        0
  5453  813-65-301      3   74   19   0.110  -0.420        0
  5454  813-71-365      3   74   19   0.110  -0.420        0
  5455  818-17-5        2   74   19   0.080  -0.160        0
  5456  820-1-108       2   74   20  -0.030   0.150        0
  5457  812-17-5       -2   74   19   0.160   0.430        0
  5458  812-36-157     -2   74   19   0.160   0.430        0
  5459  812-56-17      -2   74   19   0.160   0.430        0
  5460  812-61-61      -2   74   19   0.160   0.430        0
  5461  812-66-19      -2   74   19   0.160   0.430        0
  5462  811-56-19       2   74   19   0.040   0.330        0
  5463  811-66-20       2   74   19   0.040   0.330        0
  5464  796-65-362      2   75   20  -0.270  -0.050        0
  5465  796-71-365      2   75   20  -0.270  -0.050        0
  5466  833-8-18       -2   73   21   0.470   0.130        0
  5467  822-1-63        2   74   21  -0.110   0.060        0
  5468  830-1-365       2   74   22  -0.340  -0.450        0
  5469  821-56-17       3   74   21  -0.140   0.390        0
  5470  821-61-61       3   74   21  -0.140   0.390        0
  5471  845-1-73        2   73   24  -0.360   0.190        0
  5472  845-7-2         2   73   24  -0.360   0.190        0
  5473  845-11-272      2   73   24  -0.360   0.190        0
  5474  845-16-318      2   73   24  -0.360   0.190        0
  5475  845-22-33       2   73   24  -0.360   0.190        0
  5476  845-31-351      2   73   24  -0.360   0.190        0
  5477  845-36-62       2   73   24  -0.360   0.190        0
  5478  845-42-350      2   73   24  -0.360   0.190        0
  5479  845-48-348      2   73   24  -0.360   0.190        0
  5480  845-56-19       2   73   24  -0.360   0.190        0
  5481  845-60-323      2   73   24  -0.360   0.190        0
  5482  845-65-301      2   73   24  -0.360   0.190        0
  5483  845-71-13       2   73   24  -0.360   0.190        0
  5484  1183-16-315    -2   64   29   0.310  -0.420        0
  5485  1183-26-354    -2   64   29   0.310  -0.420        0
  5486  1183-31-362    -2   64   29   0.310  -0.420        0
  5487  1183-36-356    -2   64   29   0.310  -0.420        0
  5488  1183-42-350    -2   64   29   0.310  -0.420        0
  5489  1183-48-348    -2   64   29   0.310  -0.420        0
  5490  1183-66-25     -2   64   29   0.310  -0.420        0
  5491  1183-71-365    -2   64   29   0.310  -0.420        0
  5492  1190-56-23     -2   64   29   0.310   0.290        0
  5493  1190-61-54     -2   64   29   0.310   0.290        0
  5494  1190-66-25     -2   64   29   0.310   0.290        0
  5495  1186-3-344      2   64   30   0.310  -0.380        0
  5496  1186-5-69       2   64   30   0.310  -0.380        0
  5497  1186-17-6       2   64   30   0.310  -0.380        0
  5498  1185-10-213     2   64   30   0.310  -0.350        0
  5499  1178-38-335     3   64   32   0.350   0.320        0
  5500  1178-42-349     3   64   32   0.350   0.320        0
  5501  1178-48-349     3   64   32   0.350   0.320        0
  5502  1178-55-353     3   64   32   0.350   0.320        0
  5503  1178-61-21      3   64   32   0.350   0.320        0
  5504  1178-66-34      3   64   32   0.350   0.320        0
  5505  1178-71-365     3   64   32   0.350   0.320        0
  5506  1182-66-25      2   64   31   0.350   0.310        0
  5507  1132-12-4       2   66   32  -0.420   0.250        0
  5508  1134-1-73       2   66   32  -0.500   0.380        0
  5509  1148-17-12     -2   65   36   0.280   0.290        0
  5510  1148-21-356    -2   65   36   0.280   0.290        0
  5511  1148-27-27     -2   65   36   0.280   0.290        0
  5512  1148-31-348    -2   65   36   0.280   0.290        0
  5513  1148-37-23     -2   65   36   0.280   0.290        0
  5514  1148-42-349    -2   65   36   0.280   0.290        0
  5515  1148-48-348    -2   65   36   0.280   0.290        0
  5516  1148-55-353    -2   65   36   0.280   0.290        0
  5517  1148-61-34     -2   65   36   0.280   0.290        0
  5518  1148-66-6      -2   65   36   0.280   0.290        0
  5519  1148-71-365    -2   65   36   0.280   0.290        0
  5520  1177-35-321     3   64   35   0.400  -0.470        0
  5521  1177-42-349     3   64   35   0.400  -0.470        0
  5522  1177-48-348     3   64   35   0.400  -0.470        0
  5523  1177-55-353     3   64   35   0.400  -0.470        0
  5524  1177-61-21      3   64   35   0.400  -0.470        0
  5525  1177-66-34      3   64   35   0.400  -0.470        0
  5526  1177-71-50      3   64   35   0.400  -0.470        0
  5527  1105-12-4       2   66   36   0.240   0.350        0
  5528  1105-16-333     2   66   36   0.240   0.350        0
  5529  1105-21-356     2   66   36   0.240   0.350        0
  5530  1106-42-349     3   66   37   0.310  -0.480        0
  5531  1106-55-353     3   66   37   0.310  -0.480        0
  5532  1106-61-13      3   66   37   0.310  -0.480        0
  5533  1106-66-6       3   66   37   0.310  -0.480        0
  5534  1106-71-365     3   66   37   0.310  -0.480        0
  5535  1102-66-6       3   66   37   0.280   0.400        0
  5536  1102-71-365     3   66   37   0.280   0.400        0
  5537  1120-3-152      2   66   38  -0.220  -0.250        0
  5538  1089-42-349    -2   66   34   0.420   0.430        0
  5539  1089-48-349    -2   66   34   0.420   0.430        0
  5540  1089-55-353    -2   66   34   0.420   0.430        0
  5541  1089-61-34     -2   66   34   0.420   0.430        0
  5542  1089-66-6      -2   66   34   0.420   0.430        0
  5543  1089-71-365    -2   66   34   0.420   0.430        0
  5544  1093-66-6       3   66   34   0.420   0.400        0
  5545  1093-71-365     3   66   34   0.420   0.400        0
  5546  1087-48-349    -2   66   33   0.420  -0.460        0
  5547  1087-61-24     -2   66   33   0.420  -0.460        0
  5548  1087-71-70     -2   66   33   0.420  -0.460        0
  5549  1097-15-1       3   66   41   0.360  -0.280        0
  5550  996-26-315      3   68   33   0.330  -0.400        0
  5551  996-48-349      3   68   33   0.330  -0.400        0
  5552  996-55-353      3   68   33   0.330  -0.400        0
  5553  996-61-11       3   68   33   0.330  -0.400        0
  5554  996-66-6        3   68   33   0.330  -0.400        0
  5555  996-71-365      3   68   33   0.330  -0.400        0
  5556  995-39-335     -2   68   34   0.340   0.360        0
  5557  995-42-349     -2   68   34   0.340   0.360        0
  5558  995-55-353     -2   68   34   0.340   0.360        0
  5559  995-61-34      -2   68   34   0.340   0.360        0
  5560  995-66-6       -2   68   34   0.340   0.360        0
  5561  995-71-365      3   68   34   0.340   0.360        0
  5562  1090-12-5       2   66   30   0.490   0.100        0
  5563  1090-17-5       2   66   30   0.490   0.100        0
  5564  969-56-19       3   69   26  -0.410   0.350        0
  5565  969-71-365      3   69   26  -0.410   0.350        0
  5566  983-42-349      3   68   30   0.440   0.420        0
  5567  983-55-353      3   68   30   0.440   0.420        0
  5568  983-61-34       3   68   30   0.440   0.420        0
  5569  983-66-6        3   68   30   0.440   0.420        0
  5570  983-71-365      3   68   30   0.440   0.420        0
  5571  982-39-238      3   68   30   0.480  -0.130        0
  5572  921-42-305      3   70   33   0.250  -0.400        0
  5573  921-48-349      3   70   33   0.250  -0.400        0
  5574  921-61-34       3   70   33   0.250  -0.400        0
  5575  921-65-356      3   70   33   0.250  -0.400        0
  5576  921-71-365      3   70   33   0.250  -0.400        0
  5577  924-43-60       3   70   34   0.210   0.390        0
  5578  924-48-348      3   70   34   0.210   0.390        0
  5579  924-55-353      3   70   34   0.210   0.390        0
  5580  924-61-34       3   70   34   0.210   0.390        0
  5581  924-66-6        3   70   34   0.210   0.390        0
  5582  924-71-365      3   70   34   0.210   0.390        0
  5583  909-56-16       3   71   32  -0.490  -0.380        0
  5584  911-34-337      3   70   31   0.470  -0.390        0
  5585  900-56-19      -2   71   27  -0.310   0.060        0
  5586  900-61-61      -2   71   27  -0.310   0.060        0
  5587  848-56-18      -2   73   28  -0.310  -0.290        0
  5588  848-66-28      -2   73   28  -0.310  -0.290        0
  5589  826-56-19       2   74   28  -0.200   0.330        0
  5590  800-61-61       2   74   28   0.330   0.290        0
  5591  800-66-28       2   74   28   0.330   0.290        0
  5592  803-33-59       2   74   29   0.370  -0.320        0
  5593  852-2-305       2   72   35   0.320   0.200        0
  5594  1249-56-27      2   62   61   0.470   0.000        0
  5595  1249-66-13      2   62   61   0.470   0.000        0
  5596  1249-71-365     2   62   61   0.470   0.000        0
  5597  1235-22-32     -2   63   61  -0.230  -0.290        0
  5598  1235-42-362    -2   63   61  -0.230  -0.290        0
  5599  1235-48-357    -2   63   61  -0.230  -0.290        0
  5600  1235-56-32     -2   63   61  -0.230  -0.290        0
  5601  1238-48-320     3   63   61  -0.270  -0.230        0
  5602  1238-56-10      3   63   61  -0.270  -0.230        0
  5603  1238-66-10      3   63   61  -0.270  -0.230        0
  5604  1238-71-41      2   63   61  -0.270  -0.230        0
  5605  1238-71-365     2   63   61  -0.270  -0.230        0
  5606  1225-1-365      1   63   61   0.270   0.200        0
  5607  1200-56-30      2   64   61  -0.080  -0.420        0
  5608  1200-66-10      1   64   61  -0.080  -0.420        0
  5609  1200-71-40      1   64   61  -0.080  -0.420        0
  5610  1198-71-48      1   64   62   0.110  -0.250        0
  5611  1262-48-320     3   62   61   0.310  -0.460        0
  5612  1262-56-10      3   62   61   0.310  -0.460        0
  5613  1262-60-362     3   62   61   0.310  -0.460        0
  5614  1262-66-10      3   62   61   0.310  -0.460        0
  5615  1262-71-41      2   62   61   0.310  -0.460        0
  5616  1263-48-320     2   62   61   0.310  -0.490        0
  5617  1263-56-10      2   62   61   0.310  -0.490        0
  5618  1263-60-362     2   62   61   0.310  -0.490        0
  5619  1263-66-10      2   62   61   0.310  -0.490        0
  5620  1263-71-60      2   62   61   0.310  -0.490        0
  5621  1263-71-365     2   62   61   0.310  -0.490        0
  5622  1239-17-44     -3   63   60  -0.270  -0.140        0
  5623  1239-22-32     -3   63   60  -0.270  -0.140        0
  5624  1239-43-5      -2   63   60  -0.270  -0.140        0
  5625  1239-48-364    -2   63   60  -0.270  -0.140        0
  5626  1239-56-41     -2   63   60  -0.270  -0.140        0
  5627  1239-60-362    -2   63   60  -0.270  -0.140        0
  5628  1239-66-10     -2   63   60  -0.270  -0.140        0
  5629  1239-71-365    -3   63   60  -0.270  -0.140        0
  5630  1232-48-321     2   63   60  -0.040  -0.140        0
  5631  1232-56-27      2   63   60  -0.040  -0.140        0
  5632  1232-60-361     2   63   60  -0.040  -0.140        0
  5633  1232-66-10      2   63   60  -0.040  -0.140        0
  5634  1232-71-41      2   63   60  -0.040  -0.140        0
  5635  1241-56-27      2   63   60  -0.300   0.280        0
  5636  1241-66-10      1   63   60  -0.300   0.280        0
  5637  1241-71-40      1   63   60  -0.300   0.280        0
  5638  1270-56-30      2   62   59   0.240   0.310        0
  5639  1270-71-42      1   62   59   0.240   0.310        0
  5640  1273-43-1       2   62   59   0.200   0.010        0
  5641  1273-48-364     2   62   59   0.200   0.010        0
  5642  1273-56-32      2   62   59   0.200   0.010        0
  5643  1273-60-362     2   62   59   0.200   0.010        0
  5644  1273-65-348     2   62   59   0.200   0.010        0
  5645  1273-71-365     2   62   59   0.200   0.010        0
  5646  1256-1-365      2   62   59   0.390   0.080        0
  5647  1234-43-5      -2   63   59  -0.420   0.470        0
  5648  1234-48-364    -2   63   59  -0.420   0.470        0
  5649  1234-56-32     -2   63   59  -0.420   0.470        0
  5650  1234-60-362    -2   63   59  -0.420   0.470        0
  5651  1233-56-32      2   63   60  -0.040  -0.460        0
  5652  1233-65-337     1   63   60  -0.040  -0.460        0
  5653  1233-71-365     1   63   60  -0.040  -0.460        0
  5654  1227-17-44     -2   63   59   0.420   0.470        0
  5655  1227-22-58     -2   63   59   0.420   0.470        0
  5656  1227-31-335    -2   63   59   0.420   0.470        0
  5657  1227-43-5      -2   63   59   0.420   0.470        0
  5658  1227-48-364    -2   63   59   0.420   0.470        0
  5659  1227-56-32     -2   63   59   0.420   0.470        0
  5660  1227-61-60     -2   63   59   0.420   0.470        0
  5661  1227-71-365    -2   63   59   0.420   0.470        0
  5662  1208-1-364      2   64   59  -0.230  -0.020        0
  5663  1208-6-360      2   64   59  -0.230  -0.020        0
  5664  1208-11-360     2   64   59  -0.230  -0.020        0
  5665  1208-16-357     2   64   59  -0.230  -0.020        0
  5666  1208-21-361     2   64   59  -0.230  -0.020        0
  5667  1208-26-354     2   64   59  -0.230  -0.020        0
  5668  1208-31-362     2   64   59  -0.230  -0.020        0
  5669  1219-22-33     -3   63   60   0.390   0.190        0
  5670  1219-33-165    -2   63   60   0.390   0.190        0
  5671  1219-42-362    -2   63   60   0.390   0.190        0
  5672  1219-48-357    -2   63   60   0.390   0.190        0
  5673  1219-56-32     -2   63   60   0.390   0.190        0
  5674  1219-60-362    -2   63   60   0.390   0.190        0
  5675  1219-66-10     -2   63   60   0.390   0.190        0
  5676  1219-71-365    -3   63   60   0.390   0.190        0
  5677  1217-56-27      2   63   60   0.460   0.120        0
  5678  1217-71-365     1   63   60   0.460   0.120        0
  5679  1205-33-160    -3   64   60  -0.160   0.380        0
  5680  1205-42-362    -2   64   60  -0.160   0.380        0
  5681  1205-48-357    -2   64   60  -0.160   0.380        0
  5682  1205-56-34     -2   64   60  -0.160   0.380        0
  5683  1205-66-10     -2   64   60  -0.160   0.380        0
  5684  1231-7-66      -3   63   58   0.270   0.230        0
  5685  1231-12-57     -3   63   58   0.270   0.230        0
  5686  1231-17-4      -3   63   58   0.270   0.230        0
  5687  1231-22-32     -3   63   58   0.270   0.230        0
  5688  1231-27-10     -3   63   58   0.270   0.230        0
  5689  1231-31-335    -3   63   58   0.270   0.230        0
  5690  1231-37-335    -2   63   58   0.270   0.230        0
  5691  1179-6-115      1   64   58   0.460  -0.190        0
  5692  1168-17-47      2   65   58  -0.240  -0.030        0
  5693  1168-22-32      2   65   58  -0.240  -0.030        0
  5694  1168-36-335     2   65   58  -0.240  -0.030        0
  5695  1114-1-365      1   66   57   0.140  -0.040        0
  5696  1122-17-47      2   66   58  -0.280   0.140        0
  5697  1122-22-32      2   66   58  -0.280   0.140        0
  5698  1122-42-356     2   66   58  -0.280   0.140        0
  5699  1122-48-335     2   66   58  -0.280   0.140        0
  5700  1140-7-66      -3   65   58   0.410  -0.220        0
  5701  1140-12-57     -3   65   58   0.410  -0.220        0
  5702  1140-17-4      -3   65   58   0.410  -0.220        0
  5703  1140-22-32     -3   65   58   0.410  -0.220        0
  5704  1140-31-335    -2   65   58   0.410  -0.220        0
  5705  1140-36-345    -2   65   58   0.410  -0.220        0
  5706  1193-48-321    -2   64   60   0.190   0.350        0
  5707  1193-56-30     -2   64   60   0.190   0.350        0
  5708  1176-48-320     3   64   61   0.490  -0.420        0
  5709  1176-56-10      3   64   61   0.490  -0.420        0
  5710  1176-60-361     3   64   61   0.490  -0.420        0
  5711  1176-66-10      3   64   61   0.490  -0.420        0
  5712  1176-71-40      2   64   61   0.490  -0.420        0
  5713  1176-71-365     2   64   61   0.490  -0.420        0
  5714  1159-66-10      1   65   60  -0.120   0.380        0
  5715  1159-71-62      1   65   60  -0.120   0.380        0
  5716  1159-71-365     1   65   60  -0.120   0.380        0
  5717  1160-71-62     -2   65   60  -0.120   0.190        0
  5718  1160-71-365    -2   65   60  -0.120   0.190        0
  5719  1147-42-356     3   65   60   0.180   0.220        0
  5720  1147-48-335     3   65   60   0.180   0.220        0
  5721  1147-56-17      3   65   60   0.180   0.220        0
  5722  1141-1-274      3   65   59   0.380  -0.120        0
  5723  1141-7-176      3   65   59   0.380  -0.120        0
  5724  1141-11-311     3   65   59   0.380  -0.120        0
  5725  1141-17-44      3   65   59   0.380  -0.120        0
  5726  1141-22-30      3   65   59   0.380  -0.120        0
  5727  1141-26-349     3   65   59   0.380  -0.120        0
  5728  1141-31-362     3   65   59   0.380  -0.120        0
  5729  1141-36-356     3   65   59   0.380  -0.120        0
  5730  1141-42-362     3   65   59   0.380  -0.120        0
  5731  1141-48-364     3   65   59   0.380  -0.120        0
  5732  1141-56-32      3   65   59   0.380  -0.120        0
  5733  1141-60-362     3   65   59   0.380  -0.120        0
  5734  1141-66-1       3   65   59   0.380  -0.120        0
  5735  1141-71-365     2   65   59   0.380  -0.120        0
  5736  1121-17-44     -3   66   60  -0.240   0.120        0
  5737  1121-22-33     -3   66   60  -0.240   0.120        0
  5738  1121-31-335    -3   66   60  -0.240   0.120        0
  5739  1121-35-345    -2   66   60  -0.240   0.120        0
  5740  1121-42-356    -2   66   60  -0.240   0.120        0
  5741  1121-48-355    -2   66   60  -0.240   0.120        0
  5742  1121-56-32     -2   66   60  -0.240   0.120        0
  5743  1121-60-362    -2   66   60  -0.240   0.120        0
  5744  1121-65-348    -3   66   60  -0.240   0.120        0
  5745  1121-71-365    -3   66   60  -0.240   0.120        0
  5746  1192-71-55      2   64   62   0.260   0.010        0
  5747  1157-48-322     3   65   62  -0.050  -0.350        0
  5748  1157-56-10      3   65   62  -0.050  -0.350        0
  5749  1157-60-361     3   65   62  -0.050  -0.350        0
  5750  1157-66-10      3   65   62  -0.050  -0.350        0
  5751  1157-71-40      2   65   62  -0.050  -0.350        0
  5752  1180-48-323     2   64   61   0.420   0.100        0
  5753  1167-71-365    -2   65   61  -0.310   0.200        0
  5754  1170-71-365    -2   65   61  -0.350   0.390        0
  5755  1172-71-365     1   65   62  -0.390  -0.450        0
  5756  1163-71-365    -2   65   61  -0.240  -0.060        0
  5757  1155-71-365     1   65   61  -0.010  -0.260        0
  5758  1144-71-365    -2   65   62   0.300   0.010        0
  5759  1080-22-33      1   67   62  -0.320  -0.350        0
  5760  1080-31-335     1   67   62  -0.320  -0.350        0
  5761  1080-42-356     1   67   62  -0.320  -0.350        0
  5762  1080-48-355     1   67   62  -0.320  -0.350        0
  5763  1085-42-356    -3   67   62  -0.400  -0.280        0
  5764  1085-48-355    -3   67   62  -0.400  -0.280        0
  5765  1091-71-56      2   66   61   0.480  -0.230        0
  5766  1048-71-365    -3   67   61   0.360  -0.030        0
  5767  1012-71-365    -3   68   61   0.090  -0.190        0
  5768  1039-48-322     2   68   62  -0.480  -0.180        0
  5769  1039-56-30      2   68   62  -0.480  -0.180        0
  5770  1039-60-362     2   68   62  -0.480  -0.180        0
  5771  1039-66-13      2   68   62  -0.480  -0.180        0
  5772  1039-71-365     2   68   62  -0.480  -0.180        0
  5773  1040-71-365     1   68   62  -0.480  -0.220        0
  5774  1075-17-44     -3   67   60  -0.170  -0.010        0
  5775  1075-22-33     -3   67   60  -0.170  -0.010        0
  5776  1075-31-335    -3   67   60  -0.170  -0.010        0
  5777  1053-42-357     3   67   59   0.250  -0.340        0
  5778  1056-48-335     3   67   59   0.210  -0.340        0
  5779  1056-56-17      3   67   59   0.210  -0.340        0
  5780  1016-17-32      3   68   59  -0.020  -0.340        0
  5781  1016-31-335     3   68   59  -0.020  -0.340        0
  5782  1016-37-319     3   68   59  -0.020  -0.340        0
  5783  1011-22-33     -3   68   59   0.090  -0.020        0
  5784  1015-42-356     2   68   60  -0.020  -0.400        0
  5785  1015-48-337     2   68   60  -0.020  -0.400        0
  5786  1015-56-19      2   68   60  -0.020  -0.400        0
  5787  1015-61-53      2   68   60  -0.020  -0.400        0
  5788  1015-66-32      2   68   60  -0.020  -0.400        0
  5789  1094-1-277      1   66   58   0.410   0.230        0
  5790  1094-6-340      1   66   58   0.410   0.230        0
  5791  1094-10-27      1   66   58   0.410   0.230        0
  5792  1077-7-176     -2   67   57  -0.290   0.060        0
  5793  1063-17-46     -3   67   57   0.140   0.190        0
  5794  1063-22-33     -3   67   57   0.140   0.190        0
  5795  1034-36-335    -2   68   57  -0.410   0.260        0
  5796  1034-42-362    -2   68   57  -0.410   0.260        0
  5797  1034-48-357    -2   68   57  -0.410   0.260        0
  5798  1034-56-34     -2   68   57  -0.410   0.260        0
  5799  1034-66-1      -2   68   57  -0.410   0.260        0
  5800  1034-71-54     -2   68   57  -0.410   0.260        0
  5801  1034-71-365    -2   68   57  -0.410   0.260        0
  5802  997-17-46       2   68   57   0.210  -0.170        0
  5803  997-22-33       2   68   57   0.210  -0.170        0
  5804  1008-1-121      1   68   57   0.130   0.190        0
  5805  1049-17-46     -2   67   58   0.250  -0.450        0
  5806  1049-31-335    -2   67   58   0.250  -0.450        0
  5807  1049-36-335    -2   67   58   0.250  -0.450        0
  5808  1049-42-356    -2   67   58   0.250  -0.450        0
  5809  1049-48-334    -2   67   58   0.250  -0.450        0
  5810  1049-56-18     -2   67   58   0.250  -0.450        0
  5811  1049-61-53     -2   67   58   0.250  -0.450        0
  5812  1007-11-194     2   68   58   0.130  -0.290        0
  5813  1007-17-4       2   68   58   0.130  -0.290        0
  5814  1007-22-32      2   68   58   0.130  -0.290        0
  5815  1007-27-10      2   68   58   0.130  -0.290        0
  5816  1007-31-335     2   68   58   0.130  -0.290        0
  5817  1007-37-319     2   68   58   0.130  -0.290        0
  5818  1006-1-364      2   68   58   0.130   0.230        0
  5819  1006-7-66       2   68   58   0.130   0.230        0
  5820  1006-11-258     2   68   58   0.130   0.230        0
  5821  1006-17-44      2   68   58   0.130   0.230        0
  5822  1065-42-356     2   67   56   0.060   0.020        0
  5823  1065-48-334     2   67   56   0.060   0.020        0
  5824  1065-56-18      2   67   56   0.060   0.020        0
  5825  1065-66-24      2   67   56   0.060   0.020        0
  5826  991-22-34       2   68   56   0.360   0.020        0
  5827  991-26-279      2   68   56   0.360   0.020        0
  5828  991-31-335      2   68   56   0.360   0.020        0
  5829  991-37-319      2   68   56   0.360   0.020        0
  5830  991-42-356      2   68   56   0.360   0.020        0
  5831  991-48-334      2   68   56   0.360   0.020        0
  5832  991-66-27       2   68   56   0.360   0.020        0
  5833  976-1-365       1   69   58  -0.370  -0.030        0
  5834  963-1-365       1   69   58  -0.140  -0.060        0
  5835  964-1-365       1   69   58  -0.140  -0.320        0
  5836  960-1-365       1   69   58  -0.100   0.230        0
  5837  953-1-364       1   69   58   0.200   0.200        0
  5838  950-17-4        1   69   58   0.240   0.200        0
  5839  936-1-365       2   70   57  -0.110  -0.100        0
  5840  932-1-365       1   70   57   0.120  -0.070        0
  5841  944-42-356      2   70   58  -0.380  -0.320        0
  5842  944-48-341      2   70   58  -0.380  -0.320        0
  5843  926-1-365       1   70   58   0.200  -0.320        0
  5844  929-1-364       1   70   58   0.160  -0.320        0
  5845  929-6-340       1   70   58   0.160  -0.320        0
  5846  929-11-333      1   70   58   0.160  -0.320        0
  5847  929-16-301      1   70   58   0.160  -0.320        0
  5848  974-42-362      3   69   60  -0.370   0.450        0
  5849  974-48-336      3   69   60  -0.370   0.450        0
  5850  974-56-18       3   69   60  -0.370   0.450        0
  5851  957-1-365       1   69   60   0.090  -0.270        0
  5852  942-1-365       1   70   59  -0.380   0.440        0
  5853  937-1-364       1   70   59  -0.150  -0.310        0
  5854  943-22-32       2   70   59  -0.150  -0.240        0
  5855  943-26-279      2   70   59  -0.150  -0.240        0
  5856  943-31-335      2   70   59  -0.150  -0.240        0
  5857  943-36-335      2   70   59  -0.150  -0.240        0
  5858  943-42-351      2   70   59  -0.150  -0.240        0
  5859  943-48-336      2   70   59  -0.150  -0.240        0
  5860  862-22-33      -3   72   61   0.110   0.430        0
  5861  862-27-59      -3   72   61   0.110   0.430        0
  5862  862-31-335     -3   72   61   0.110   0.430        0
  5863  862-36-336     -3   72   61   0.110   0.430        0
  5864  862-42-351     -3   72   61   0.110   0.430        0
  5865  862-48-337     -3   72   61   0.110   0.430        0
  5866  901-1-364       1   71   60  -0.310   0.160        0
  5867  907-37-342     -2   71   60  -0.420  -0.330        0
  5868  903-1-365       1   71   60  -0.340  -0.270        0
  5869  895-42-356      3   71   60  -0.120  -0.200        0
  5870  895-48-337      3   71   60  -0.120  -0.200        0
  5871  898-1-32        2   71   59  -0.190  -0.380        0
  5872  898-17-4        2   71   59  -0.190  -0.380        0
  5873  889-22-32      -3   71   59   0.190  -0.380        0
  5874  889-26-279     -3   71   59   0.190  -0.380        0
  5875  889-31-335     -3   71   59   0.190  -0.380        0
  5876  889-36-336     -3   71   59   0.190  -0.380        0
  5877  889-42-356     -3   71   59   0.190  -0.380        0
  5878  889-48-337     -3   71   59   0.190  -0.380        0
  5879  889-61-54      -3   71   59   0.190  -0.380        0
  5880  883-42-356      1   71   59   0.230   0.340        0
  5881  621-37-343     -2   72   59   0.220   0.080        0
  5882  934-33-21       3   70   60   0.040   0.320        0
  5883  863-1-365       2   72   60   0.110   0.480        0
  5884  914-48-336      2   70   58   0.430   0.140        0
  5885  914-61-55       2   70   58   0.430   0.140        0
  5886  902-17-47      -3   71   58  -0.310   0.170        0
  5887  902-22-32      -3   71   58  -0.310   0.170        0
  5888  902-26-278     -3   71   58  -0.310   0.170        0
  5889  902-36-336     -3   71   58  -0.310   0.170        0
  5890  902-42-356     -2   71   58  -0.310   0.170        0
  5891  902-48-337     -2   71   58  -0.310   0.170        0
  5892  902-61-54      -2   71   58  -0.310   0.170        0
  5893  916-1-365       1   70   58   0.390  -0.160        0
  5894  916-7-298       1   70   58   0.390  -0.160        0
  5895  916-11-258      1   70   58   0.390  -0.160        0
  5896  916-17-32       1   70   58   0.390  -0.160        0
  5897  916-22-34       1   70   58   0.390  -0.160        0
  5898  916-26-278      1   70   58   0.390  -0.160        0
  5899  916-36-336      1   70   58   0.390  -0.160        0
  5900  916-42-362      1   70   58   0.390  -0.160        0
  5901  916-48-335      1   70   58   0.390  -0.160        0
  5902  916-61-55       1   70   58   0.390  -0.160        0
  5903  917-42-362      2   70   58   0.390  -0.290        0
  5904  917-48-335      2   70   58   0.390  -0.290        0
  5905  905-1-365       1   71   58  -0.340  -0.320        0
  5906  910-42-362     -2   71   57  -0.500   0.190        0
  5907  897-1-365       2   71   57  -0.120   0.160        0
  5908  864-1-364       1   72   58   0.150   0.430        0
  5909  865-42-356     -2   72   58   0.150   0.400        0
  5910  865-48-335     -2   72   58   0.150   0.400        0
  5911  854-1-365       1   72   58   0.420   0.230        0
  5912  856-1-365       1   72   58   0.340  -0.350        0
  5913  851-22-34      -3   73   58  -0.320   0.010        0
  5914  851-26-278     -3   73   58  -0.320   0.010        0
  5915  851-37-342     -3   73   58  -0.320   0.010        0
  5916  851-48-337     -2   73   58  -0.320   0.010        0
  5917  851-61-54      -2   73   58  -0.320   0.010        0
  5918  843-1-365       1   73   58  -0.130   0.460        0
  5919  841-1-365       1   73   58   0.100   0.460        0
  5920  836-17-4        1   73   57   0.300  -0.130        0
  5921  823-1-365       1   74   57  -0.130   0.420        0
  5922  859-48-337      1   72   59   0.220   0.180        0
  5923  842-37-342     -2   73   59   0.070   0.110        0
  5924  842-42-356     -2   73   59   0.070   0.110        0
  5925  842-48-337     -2   73   59   0.070   0.110        0
  5926  842-61-54      -2   73   59   0.070   0.110        0
  5927  831-42-351     -2   74   59  -0.360  -0.310        0
  5928  831-48-337     -2   74   59  -0.360  -0.310        0
  5929  828-42-351     -3   74   59  -0.210   0.050        0
  5930  828-48-337     -3   74   59  -0.210   0.050        0
  5931  819-1-365       1   74   60   0.100  -0.300        0
  5932  1254-71-42      2   62   74   0.250  -0.260        0
  5933  1228-37-95      1   63   74   0.220   0.050        0
  5934  1228-42-356     1   63   74   0.220   0.050        0
  5935  1228-56-20      1   63   74   0.220   0.050        0
  5936  1228-66-25      1   63   74   0.220   0.050        0
  5937  1228-71-40      1   63   74   0.220   0.050        0
  5938  1199-48-344     2   64   74  -0.090   0.350        0
  5939  1199-56-20      2   64   74  -0.090   0.350        0
  5940  1199-61-60      2   64   74  -0.090   0.350        0
  5941  1199-66-25      2   64   74  -0.090   0.350        0
  5942  1199-71-40      2   64   74  -0.090   0.350        0
  5943  1243-42-362     2   63   70  -0.350  -0.340        0
  5944  1243-56-18      2   63   70  -0.350  -0.340        0
  5945  1243-61-60      2   63   70  -0.350  -0.340        0
  5946  1243-66-27      2   63   70  -0.350  -0.340        0
  5947  1243-71-56      2   63   70  -0.350  -0.340        0
  5948  1218-71-365    -3   63   64   0.350  -0.460        0
  5949  1204-42-356    -3   64   64  -0.200  -0.360        0
  5950  1204-56-17     -3   64   64  -0.200  -0.360        0
  5951  1204-66-26     -3   64   64  -0.200  -0.360        0
  5952  1204-71-365    -3   64   64  -0.200  -0.360        0
  5953  1131-71-365     2   66   63  -0.400  -0.140        0
  5954  1112-48-320     2   66   63   0.140  -0.010        0
  5955  1112-56-25      2   66   63   0.140  -0.010        0
  5956  1112-60-362     2   66   63   0.140  -0.010        0
  5957  1112-65-348     2   66   63   0.140  -0.010        0
  5958  1112-71-60      2   66   63   0.140  -0.010        0
  5959  1112-71-365     2   66   63   0.140  -0.010        0
  5960  1118-71-365     1   66   64  -0.010  -0.360        0
  5961  1111-71-362    -2   66   66   0.140   0.440        0
  5962  1169-71-362     1   65   67  -0.360   0.220        0
  5963  1100-48-348    -2   66   73   0.280  -0.080        0
  5964  1100-56-25     -2   66   73   0.280  -0.080        0
  5965  1100-61-56     -2   66   73   0.280  -0.080        0
  5966  1100-66-42     -2   66   73   0.280  -0.080        0
  5967  1100-71-365    -2   66   73   0.280  -0.080        0
  5968  1051-42-355    -2   67   73   0.160  -0.240        0
  5969  1051-48-365    -2   67   73   0.160  -0.240        0
  5970  1051-56-25     -2   67   73   0.160  -0.240        0
  5971  1051-61-42     -2   67   73   0.160  -0.240        0
  5972  1051-66-53     -2   67   73   0.160  -0.240        0
  5973  1051-71-365    -2   67   73   0.160  -0.240        0
  5974  1036-12-95      1   68   73  -0.490  -0.310        0
  5975  1036-26-349     1   68   73  -0.490  -0.310        0
  5976  1036-48-348     1   68   73  -0.490  -0.310        0
  5977  1036-56-25      1   68   73  -0.490  -0.310        0
  5978  1036-61-42      1   68   73  -0.490  -0.310        0
  5979  1036-66-53      1   68   73  -0.490  -0.310        0
  5980  1036-71-365     1   68   73  -0.490  -0.310        0
  5981  1025-56-27      1   68   72  -0.300  -0.380        0
  5982  1025-66-59      1   68   72  -0.300  -0.380        0
  5983  1054-66-59      1   67   71   0.210  -0.460        0
  5984  1055-65-348     1   67   70   0.170  -0.340        0
  5985  1001-56-18      1   68   70   0.160  -0.340        0
  5986  1001-65-348     1   68   70   0.160  -0.340        0
  5987  1027-56-18      1   68   70  -0.300   0.480        0
  5988  1086-71-55      1   66   66   0.480  -0.110        0
  5989  1099-26-349    -3   66   63   0.330  -0.340        0
  5990  1099-43-4      -3   66   63   0.330  -0.340        0
  5991  1099-48-362    -3   66   63   0.330  -0.340        0
  5992  1099-56-9      -3   66   63   0.330  -0.340        0
  5993  1042-48-355     2   67   63   0.480  -0.300        0
  5994  1042-56-25      2   67   63   0.480  -0.300        0
  5995  1042-60-362     2   67   63   0.480  -0.300        0
  5996  1042-65-348     2   67   63   0.480  -0.300        0
  5997  1042-71-365     2   67   63   0.480  -0.300        0
  5998  952-56-33       1   69   70   0.200  -0.330        0
  5999  952-65-348      1   69   70   0.200  -0.330        0
  6000  949-56-27       2   69   73   0.230  -0.400        0
  6001  993-56-27       1   68   71   0.280  -0.360        0
  6002  956-56-29       2   69   71   0.120  -0.160        0
  6003  886-71-355     -2   71   74   0.140   0.420        0
  6004  886-71-362     -2   71   74   0.140   0.420        0
  6005  913-42-355      1   70   73   0.420   0.440        0
  6006  913-48-334      1   70   73   0.420   0.440        0
  6007  913-56-18       1   70   73   0.420   0.440        0
  6008  913-61-53       1   70   73   0.420   0.440        0
  6009  913-66-32       1   70   73   0.420   0.440        0
  6010  874-71-61       2   72   73  -0.290  -0.240        0
  6011  933-48-338      1   70   69   0.040  -0.280        0
  6012  933-56-18       1   70   69   0.040  -0.280        0
  6013  933-61-53       1   70   69   0.040  -0.280        0
  6014  933-66-32       1   70   69   0.040  -0.280        0
  6015  887-26-285     -2   71   69   0.220  -0.310        0
  6016  887-31-335     -2   71   69   0.220  -0.310        0
  6017  887-37-1       -2   71   69   0.220  -0.310        0
  6018  887-42-357     -2   71   69   0.220  -0.310        0
  6019  877-42-352      1   72   69  -0.350  -0.310        0
  6020  877-48-338      1   72   69  -0.350  -0.310        0
  6021  877-61-53       1   72   69  -0.350  -0.310        0
  6022  877-66-32       1   72   69  -0.350  -0.310        0
  6023  919-42-357     -2   70   65   0.270   0.460        0
  6024  920-42-357     -2   70   65   0.270  -0.320        0
  6025  888-42-357      1   71   65   0.150   0.470        0
  6026  892-17-48      -2   71   65  -0.080  -0.350        0
  6027  892-22-37      -2   71   65  -0.080  -0.350        0
  6028  892-26-285     -2   71   65  -0.080  -0.350        0
  6029  892-31-335     -2   71   65  -0.080  -0.350        0
  6030  892-36-337     -2   71   65  -0.080  -0.350        0
  6031  878-36-335     -2   72   63  -0.310  -0.400        0
  6032  878-42-359     -2   72   63  -0.310  -0.400        0
  6033  878-71-365     -2   72   63  -0.310  -0.400        0
  6034  853-22-37       2   72   63   0.340  -0.300        0
  6035  853-26-336      2   72   63   0.340  -0.300        0
  6036  853-48-362      2   72   63   0.340  -0.300        0
  6037  853-56-9        2   72   63   0.340  -0.300        0
  6038  853-61-47       2   72   63   0.340  -0.300        0
  6039  853-65-357      2   72   63   0.340  -0.300        0
  6040  853-71-362      2   72   63   0.340  -0.300        0
  6041  844-43-4       -2   73   63  -0.090  -0.340        0
  6042  844-48-362     -2   73   63  -0.090  -0.340        0
  6043  844-56-9       -2   73   63  -0.090  -0.340        0
  6044  844-61-47      -2   73   63  -0.090  -0.340        0
  6045  844-65-357     -2   73   63  -0.090  -0.340        0
  6046  844-71-362     -2   73   63  -0.090  -0.340        0
  6047  834-16-364     -2   73   63   0.370  -0.340        0
  6048  834-26-280     -2   73   63   0.370  -0.340        0
  6049  834-43-4       -2   73   63   0.370  -0.340        0
  6050  834-56-20      -2   73   63   0.370  -0.340        0
  6051  834-60-306     -2   73   63   0.370  -0.340        0
  6052  834-65-357     -2   73   63   0.370  -0.340        0
  6053  834-71-362     -2   73   63   0.370  -0.340        0
  6054  835-65-357      1   73   63   0.290  -0.340        0
  6055  835-71-362      1   73   63   0.290  -0.340        0
  6056  815-1-365       1   74   63   0.140  -0.300        0
  6057  850-17-80       2   73   69  -0.440   0.020        0
  6058  850-22-37       2   73   69  -0.440   0.020        0
  6059  850-26-285      2   73   69  -0.440   0.020        0
  6060  850-31-335      2   73   69  -0.440   0.020        0
  6061  850-38-60       2   73   69  -0.440   0.020        0
  6062  850-42-352      2   73   69  -0.440   0.020        0
  6063  850-48-338      2   73   69  -0.440   0.020        0
  6064  850-60-320      2   73   69  -0.440   0.020        0
  6065  850-65-298      2   73   69  -0.440   0.020        0
  6066  850-71-365      2   73   69  -0.440   0.020        0
  6067  1259-66-59      2   62   84   0.290  -0.310        0
  6068  1236-66-59      2   63   84  -0.290   0.110        0
  6069  1260-66-59      2   62   84   0.290  -0.470        0
  6070  1244-66-59      2   63   84  -0.410  -0.470        0
  6071  1252-35-23      2   62   81   0.260  -0.310        0
  6072  1267-71-365     2   62   81   0.250  -0.140        0
  6073  1253-37-90      2   62   79   0.370   0.030        0
  6074  1253-42-355     2   62   79   0.370   0.030        0
  6075  1253-48-349     2   62   79   0.370   0.030        0
  6076  1253-56-11      2   62   79   0.370   0.030        0
  6077  1253-61-56      2   62   79   0.370   0.030        0
  6078  1253-66-59      2   62   79   0.370   0.030        0
  6079  1253-71-365     2   62   79   0.370   0.030        0
  6080  1245-37-90      2   62   77   0.220   0.280        0
  6081  1245-42-355     2   62   77   0.220   0.280        0
  6082  1245-48-349     2   62   77   0.220   0.280        0
  6083  1245-55-357     2   62   77   0.220   0.280        0
  6084  1245-61-12      2   62   77   0.220   0.280        0
  6085  1245-66-49      2   62   77   0.220   0.280        0
  6086  1245-71-365     2   62   77   0.220   0.280        0
  6087  1250-17-86     -2   62   75   0.260   0.090        0
  6088  1250-32-69     -2   62   75   0.260   0.090        0
  6089  1250-37-95     -2   62   75   0.260   0.090        0
  6090  1250-56-19      2   62   75   0.260   0.090        0
  6091  1250-61-60      2   62   75   0.260   0.090        0
  6092  1251-12-296    -2   62   75   0.380  -0.300        0
  6093  1251-17-86     -2   62   75   0.380  -0.300        0
  6094  1251-32-69     -2   62   75   0.380  -0.300        0
  6095  1251-37-95     -2   62   75   0.380  -0.300        0
  6096  1251-42-356    -2   62   75   0.380  -0.300        0
  6097  1251-48-334    -2   62   75   0.380  -0.300        0
  6098  1251-56-19     -2   62   75   0.380  -0.300        0
  6099  1251-60-321    -2   62   75   0.380  -0.300        0
  6100  1251-65-298    -2   62   75   0.380  -0.300        0
  6101  1251-71-365    -2   62   75   0.380  -0.300        0
  6102  1226-48-344     2   63   75   0.180   0.320        0
  6103  1226-56-19      2   63   75   0.180   0.320        0
  6104  1226-61-60      2   63   75   0.180   0.320        0
  6105  1226-66-25      2   63   75   0.180   0.320        0
  6106  1226-71-42      2   63   75   0.180   0.320        0
  6107  1195-12-297    -2   64   76  -0.170   0.110        0
  6108  1195-17-60     -2   64   76  -0.170   0.110        0
  6109  1195-32-69     -2   64   76  -0.170   0.110        0
  6110  1195-37-95     -2   64   76  -0.170   0.110        0
  6111  1195-48-344     2   64   76  -0.170   0.110        0
  6112  1195-56-19      2   64   76  -0.170   0.110        0
  6113  1195-66-25      2   64   76  -0.170   0.110        0
  6114  1128-70-357     2   66   75  -0.250   0.200        0
  6115  1128-71-365     2   66   75  -0.250   0.200        0
  6116  1110-17-78      1   66   76  -0.060   0.010        0
  6117  1110-32-70      1   66   76  -0.060   0.010        0
  6118  1110-37-1       1   66   76  -0.060   0.010        0
  6119  1137-16-357     2   65   78   0.400   0.000        0
  6120  1173-66-5       2   65   84  -0.460   0.080        0
  6121  1173-71-365     2   65   84  -0.460   0.080        0
  6122  1044-16-362     2   67   82   0.270  -0.350        0
  6123  1044-32-69      2   67   82   0.270  -0.350        0
  6124  1044-37-95      2   67   82   0.270  -0.350        0
  6125  1044-42-356     2   67   82   0.270  -0.350        0
  6126  1044-48-344     2   67   82   0.270  -0.350        0
  6127  1044-56-20      2   67   82   0.270  -0.350        0
  6128  1044-61-60      2   67   82   0.270  -0.350        0
  6129  1044-66-25      2   67   82   0.270  -0.350        0
  6130  1050-71-40      2   67   82   0.300  -0.390        0
  6131  1045-31-349     2   67   79   0.310  -0.350        0
  6132  1045-37-26      2   67   79   0.310  -0.350        0
  6133  1045-42-354     2   67   79   0.310  -0.350        0
  6134  1045-48-344     2   67   79   0.310  -0.350        0
  6135  1045-56-17      2   67   79   0.310  -0.350        0
  6136  1045-60-320     2   67   79   0.310  -0.350        0
  6137  1045-65-298     2   67   79   0.310  -0.350        0
  6138  1045-71-365     2   67   79   0.310  -0.350        0
  6139  1046-31-349     2   67   79   0.310  -0.350        0
  6140  1046-42-354     2   67   79   0.310  -0.350        0
  6141  1046-48-344     2   67   79   0.310  -0.350        0
  6142  1046-56-17      2   67   79   0.310  -0.350        0
  6143  1046-60-320     2   67   79   0.310  -0.350        0
  6144  1046-65-298     2   67   79   0.310  -0.350        0
  6145  1046-71-365     2   67   79   0.310  -0.350        0
  6146  1047-31-349     2   67   79   0.310  -0.350        0
  6147  1047-42-354     2   67   79   0.310  -0.350        0
  6148  1047-48-344     2   67   79   0.310  -0.350        0
  6149  1047-56-17      2   67   79   0.310  -0.350        0
  6150  1047-60-320     2   67   79   0.310  -0.350        0
  6151  1047-65-298     2   67   79   0.310  -0.350        0
  6152  1047-71-365     2   67   79   0.310  -0.350        0
  6153  1059-32-70      2   67   78  -0.150  -0.260        0
  6154  1059-56-19      2   67   78  -0.150  -0.260        0
  6155  1059-61-54      2   67   78  -0.150  -0.260        0
  6156  1059-66-32      2   67   78  -0.150  -0.260        0
  6157  1070-36-283    -2   67   75  -0.180   0.000        0
  6158  1017-17-78      2   69   76   0.110   0.110        0
  6159  1017-31-349     2   69   76   0.110   0.110        0
  6160  1017-37-26      2   69   76   0.110   0.110        0
  6161  1017-42-355     2   69   76   0.110   0.110        0
  6162  1004-71-365     2   68   77   0.120  -0.460        0
  6163  988-2-60        1   68   76   0.420  -0.470        0
  6164  979-42-355     -2   69   75  -0.420   0.010        0
  6165  979-48-334     -2   69   75  -0.420   0.010        0
  6166  979-56-18      -2   69   75  -0.420   0.010        0
  6167  979-61-53      -2   69   75  -0.420   0.010        0
  6168  961-7-85        1   69   75  -0.150  -0.220        0
  6169  961-12-60       1   69   75  -0.150  -0.220        0
  6170  961-16-362      1   69   75  -0.150  -0.220        0
  6171  955-61-53       1   69   75   0.110  -0.220        0
  6172  955-66-31       1   69   75   0.110  -0.220        0
  6173  925-71-365      2   70   76   0.180  -0.370        0
  6174  940-71-365     -2   70   76  -0.470   0.340        0
  6175  945-71-365      2   70   76  -0.430   0.340        0
  6176  959-66-49       2   69   80  -0.120   0.280        0
  6177  959-71-365      2   69   80  -0.120   0.280        0
  6178  922-61-42       2   70   80   0.220  -0.110        0
  6179  922-66-54       2   70   80   0.220  -0.110        0
  6180  922-71-365      2   70   80   0.220  -0.110        0
  6181  978-66-59       2   69   83  -0.430  -0.410        0
  6182  978-71-365      2   69   83  -0.430  -0.410        0
  6183  977-56-17       2   69   85  -0.480  -0.130        0
  6184  977-61-53       2   69   85  -0.480  -0.130        0
  6185  977-66-32       2   69   85  -0.480  -0.130        0
  6186  973-32-70       2   69   85  -0.400   0.040        0
  6187  973-38-60       2   69   85  -0.400   0.040        0
  6188  973-56-17       2   69   85  -0.400   0.040        0
  6189  973-61-53       2   69   85  -0.400   0.040        0
  6190  954-42-354      2   69   85   0.130   0.130        0
  6191  954-48-335      2   69   85   0.130   0.130        0
  6192  870-12-60       3   72   86  -0.190  -0.340        0
  6193  870-17-78       3   72   86  -0.190  -0.340        0
  6194  870-22-89       3   72   86  -0.190  -0.340        0
  6195  870-32-70       3   72   86  -0.190  -0.340        0
  6196  870-37-1        3   72   86  -0.190  -0.340        0
  6197  870-42-354      3   72   86  -0.190  -0.340        0
  6198  869-7-171       2   72   86  -0.190  -0.340        0
  6199  869-42-354      2   72   86  -0.190  -0.340        0
  6200  869-56-18       2   72   86  -0.190  -0.340        0
  6201  869-60-320      2   72   86  -0.190  -0.340        0
  6202  869-65-299      2   72   86  -0.190  -0.340        0
  6203  869-71-365      2   72   86  -0.190  -0.340        0
  6204  915-66-53       2   70   84   0.360  -0.200        0
  6205  915-71-365      2   70   84   0.360  -0.200        0
  6206  912-66-41       2   70   82   0.400   0.170        0
  6207  912-71-365      2   70   82   0.400   0.170        0
  6208  875-2-86        2   72   82  -0.330  -0.150        0
  6209  879-61-53       2   72   82  -0.370   0.080        0
  6210  879-66-46       2   72   82  -0.370   0.080        0
  6211  879-71-365      2   72   82  -0.370   0.080        0
  6212  881-2-87        2   71   80   0.440   0.480        0
  6213  891-48-334      1   71   77   0.020  -0.330        0
  6214  891-56-18       1   71   77   0.020  -0.330        0
  6215  891-61-62       1   71   77   0.020  -0.330        0
  6216  891-66-32       1   71   77   0.020  -0.330        0
  6217  891-71-64       1   71   77   0.020  -0.330        0
  6218  876-42-355     -2   72   78  -0.370   0.170        0
  6219  876-48-334     -2   72   78  -0.370   0.170        0
  6220  876-56-19      -2   72   78  -0.370   0.170        0
  6221  876-61-62      -2   72   78  -0.370   0.170        0
  6222  876-66-32      -2   72   78  -0.370   0.170        0
  6223  866-66-32       2   72   78   0.020  -0.090        0
  6224  866-71-64       2   72   78   0.020  -0.090        0
  6225  873-33-328      2   72   78  -0.290   0.200        0
  6226  918-42-355     -2   70   76   0.340   0.440        0
  6227  906-37-28      -3   71   77  -0.430  -0.460        0
  6228  923-42-355      1   70   75   0.220  -0.020        0
  6229  923-48-334      1   70   75   0.220  -0.020        0
  6230  923-56-18       1   70   75   0.220  -0.020        0
  6231  849-42-356      1   73   75  -0.400  -0.050        0
  6232  849-56-18       1   73   75  -0.400  -0.050        0
  6233  3417-32-69     -2   74   85  -0.010   0.310        0
  6234  3417-35-23     -2   74   85  -0.010   0.310        0
  6235  3417-42-354    -2   74   85  -0.010   0.310        0
  6236  3417-48-335    -2   74   85  -0.010   0.310        0
  6237  3417-56-17     -2   74   85  -0.010   0.310        0
  6238  3417-61-53     -2   74   85  -0.010   0.310        0
  6239  1921-16-362     3   62   88   0.350   0.020        0
  6240  1229-36-319     2   63   87   0.080   0.010        0
  6241  1202-42-362     2   64   88  -0.150  -0.370        0
  6242  1202-48-336     2   64   88  -0.150  -0.370        0
  6243  1164-2-93       2   65   88  -0.310   0.380        0
  6244  1164-16-300     2   65   88  -0.310   0.380        0
  6245  1164-27-12      2   65   88  -0.310   0.380        0
  6246  1164-48-336     2   65   88  -0.310   0.380        0
  6247  1164-56-17      2   65   88  -0.310   0.380        0
  6248  1164-61-60      2   65   88  -0.310   0.380        0
  6249  1125-71-356     2   66   90  -0.240  -0.120        0
  6250  1123-71-53      2   66   90  -0.210  -0.120        0
  6251  1543-2-90       2   67   92   0.280  -0.060        0
  6252  1543-56-19      2   67   92   0.280  -0.060        0
  6253  1543-66-26      2   67   92   0.280  -0.060        0
  6254  1084-48-338     2   67   91  -0.440   0.060        0
  6255  1067-71-63      2   67   90  -0.100   0.140        0
  6256  1066-71-63      2   67   90  -0.100   0.210        0
  6257  1544-2-88       2   67   91   0.130  -0.430        0
  6258  1544-12-324     2   67   91   0.130  -0.430        0
  6259  1593-61-60      2   67   89  -0.400  -0.090        0
  6260  1593-66-26      2   67   89  -0.400  -0.090        0
  6261  1069-71-365     2   67   88  -0.210  -0.230        0
  6262  1052-56-17      2   67   88   0.210   0.350        0
  6263  1052-66-26      2   67   88   0.210   0.350        0
  6264  989-66-20       2   68   89   0.480  -0.410        0
  6265  966-22-60       2   69   88  -0.260   0.060        0
  6266  987-12-324      2   68   92   0.310   0.260        0
  6267  987-22-33       2   68   92   0.310   0.260        0
  6268  987-27-12       2   68   92   0.310   0.260        0
  6269  987-66-20       2   68   92   0.310   0.260        0
  6270  858-71-63       2   72   92   0.230   0.000        0
  6271  890-42-362     -2   71   91   0.000  -0.490        0
  6272  890-48-338     -2   71   91   0.000  -0.490        0
  6273  890-56-19      -2   71   91   0.000  -0.490        0
  6274  890-61-60      -2   71   91   0.000  -0.490        0
  6275  890-66-20      -2   71   91   0.000  -0.490        0
  6276  908-71-365      2   71   89  -0.500   0.140        0
  6277  667-17-5        2   82   14  -0.360   0.260        0
  6278  667-22-1        2   82   14  -0.360   0.260        0
  6279  667-27-14       2   82   14  -0.360   0.260        0
  6280  667-31-350      2   82   14  -0.360   0.260        0
  6281  667-37-340      2   82   14  -0.360   0.260        0
  6282  667-42-351      2   82   14  -0.360   0.260        0
  6283  667-48-348      2   82   14  -0.360   0.260        0
  6284  652-27-14       3   82   14   0.290   0.190        0
  6285  652-56-17       3   82   14   0.290   0.190        0
  6286  652-66-20       3   82   14   0.290   0.190        0
  6287  614-27-14       2   84   13  -0.300   0.040        0
  6288  613-56-17       2   84   13  -0.110   0.140        0
  6289  641-1-260       1   83   11  -0.380  -0.370        0
  6290  641-26-1        2   83   11  -0.380  -0.370        0
  6291  641-56-18       2   83   11  -0.380  -0.370        0
  6292  641-66-31       2   83   11  -0.380  -0.370        0
  6293  793-6-289      -2   75   20  -0.120  -0.210        0
  6294  793-48-348     -2   75   20  -0.120  -0.210        0
  6295  793-61-25      -2   75   20  -0.120  -0.210        0
  6296  793-65-357     -2   75   20  -0.120  -0.210        0
  6297  793-71-365     -2   75   20  -0.120  -0.210        0
  6298  762-56-18       2   76   21  -0.160  -0.400        0
  6299  762-61-61       2   76   21  -0.160  -0.400        0
  6300  762-66-34       2   76   21  -0.160  -0.400        0
  6301  758-48-348     -2   76   19   0.220  -0.260        0
  6302  758-55-353     -2   76   19   0.220  -0.260        0
  6303  758-61-25      -2   76   19   0.220  -0.260        0
  6304  758-65-362     -2   76   19   0.220  -0.260        0
  6305  758-71-365     -2   76   19   0.220  -0.260        0
  6306  766-10-104      2   76   16  -0.130   0.460        0
  6307  773-36-156      3   76   16  -0.440   0.430        0
  6308  722-8-276       2   78   17   0.200  -0.290        0
  6309  722-12-360      2   78   17   0.200  -0.290        0
  6310  722-22-3        2   78   17   0.200  -0.290        0
  6311  741-65-362      2   77   17  -0.020   0.300        0
  6312  741-71-365      2   77   17  -0.020   0.300        0
  6313  738-65-362      2   77   17   0.090   0.040        0
  6314  738-71-365      2   77   17   0.090   0.040        0
  6315  743-65-362      2   77   18  -0.100  -0.470        0
  6316  743-71-365      2   77   18  -0.100  -0.470        0
  6317  740-65-362      2   77   17   0.060   0.430        0
  6318  740-71-365      2   77   17   0.060   0.430        0
  6319  737-22-3        2   77   18   0.210  -0.240        0
  6320  737-48-348      2   77   18   0.210  -0.240        0
  6321  737-61-25       2   77   18   0.210  -0.240        0
  6322  737-65-362      2   77   18   0.210  -0.240        0
  6323  737-71-365      2   77   18   0.210  -0.240        0
  6324  723-12-180      2   78   23   0.220  -0.320        0
  6325  723-17-9        2   78   23   0.220  -0.320        0
  6326  723-22-1        2   78   23   0.220  -0.320        0
  6327  723-32-85       2   78   23   0.220  -0.320        0
  6328  748-61-61       2   77   26  -0.190   0.330        0
  6329  748-66-33       2   77   26  -0.190   0.330        0
  6330  714-56-19       2   79   26  -0.160   0.260        0
  6331  714-61-61       2   79   26  -0.160   0.260        0
  6332  715-56-17       2   78   15   0.350  -0.110        0
  6333  715-61-62       2   78   15   0.350  -0.110        0
  6334  715-66-35       2   78   15   0.350  -0.110        0
  6335  713-56-17       2   79   15  -0.270   0.110        0
  6336  713-66-35       2   79   15  -0.270   0.110        0
  6337  702-65-362      3   80   16  -0.500   0.090        0
  6338  702-71-365      3   80   16  -0.500   0.090        0
  6339  700-36-164      2   80   16  -0.310  -0.040        0
  6340  700-55-353      2   80   16  -0.310  -0.040        0
  6341  700-61-25       2   80   16  -0.310  -0.040        0
  6342  700-65-362      2   80   16  -0.310  -0.040        0
  6343  700-71-365      2   80   16  -0.310  -0.040        0
  6344  671-27-14       2   81   15   0.370   0.370        0
  6345  671-55-353      2   81   15   0.370   0.370        0
  6346  671-61-25       2   81   15   0.370   0.370        0
  6347  656-12-178      2   82   15  -0.130   0.040        0
  6348  656-56-17       2   82   15  -0.130   0.040        0
  6349  656-66-20       2   82   15  -0.130   0.040        0
  6350  656-71-365      2   82   15  -0.130   0.040        0
  6351  655-26-362      2   82   24   0.280   0.170        0
  6352  655-32-85       2   82   24   0.280   0.170        0
  6353  655-35-53       2   82   24   0.280   0.170        0
  6354  655-56-18       2   82   24   0.280   0.170        0
  6355  689-66-33       2   80   26   0.330  -0.430        0
  6356  688-71-365      2   80   25   0.370   0.340        0
  6357  682-56-18       2   81   25  -0.130  -0.110        0
  6358  636-56-18       2   83   19  -0.350  -0.250        0
  6359  636-61-62       2   83   19  -0.350  -0.250        0
  6360  636-66-20       2   83   19  -0.350  -0.250        0
  6361  648-71-365      3   82   18   0.380   0.170        0
  6362  601-48-348      2   84   19   0.250  -0.250        0
  6363  601-55-353      2   84   19   0.250  -0.250        0
  6364  601-61-34       2   84   19   0.250  -0.250        0
  6365  601-65-362      2   84   19   0.250  -0.250        0
  6366  601-71-365      2   84   19   0.250  -0.250        0
  6367  632-56-17       2   84   15  -0.290  -0.230        0
  6368  632-66-20       2   84   15  -0.290  -0.230        0
  6369  602-22-1        2   84   16   0.060   0.400        0
  6370  579-56-18       2   85   16  -0.370  -0.290        0
  6371  598-42-351      3   85   22  -0.430  -0.420        0
  6372  598-48-348      3   85   22  -0.430  -0.420        0
  6373  598-56-18       3   85   22  -0.430  -0.420        0
  6374  598-60-323      3   85   22  -0.430  -0.420        0
  6375  598-65-300      3   85   22  -0.430  -0.420        0
  6376  598-71-365      3   85   22  -0.430  -0.420        0
  6377  739-37-15       2   77   29   0.320   0.160        0
  6378  739-48-341      2   77   29   0.320   0.160        0
  6379  739-55-353      2   77   29   0.320   0.160        0
  6380  739-61-34       2   77   29   0.320   0.160        0
  6381  739-65-362      2   77   29   0.320   0.160        0
  6382  739-71-365      2   77   29   0.320   0.160        0
  6383  720-12-152      2   79   29  -0.460  -0.420        0
  6384  720-17-9        2   79   29  -0.460  -0.420        0
  6385  720-21-364      2   79   29  -0.460  -0.420        0
  6386  720-66-34       2   79   29  -0.460  -0.420        0
  6387  747-48-341      2   77   32   0.440  -0.030        0
  6388  747-55-346      2   77   32   0.440  -0.030        0
  6389  747-61-34       2   77   32   0.440  -0.030        0
  6390  747-65-362      2   77   32   0.440  -0.030        0
  6391  747-71-365      2   77   32   0.440  -0.030        0
  6392  717-27-13       2   79   60  -0.350   0.480        0
  6393  644-42-343      3   83   61  -0.480  -0.480        0
  6394  625-42-343     -2   84   61  -0.490  -0.480        0
  6395  620-42-343      3   84   60  -0.410  -0.490        0
  6396  634-35-29       3   83   56   0.320   0.440        0
  6397  634-42-322      3   83   56   0.320   0.440        0
  6398  554-42-350      3   85   56   0.460  -0.020        0
  6399  561-42-349      3   85   55   0.350   0.460        0
  6400  535-42-350      3   86   56   0.230  -0.410        0
  6401  577-22-34       3   85   58  -0.260   0.170        0
  6402  577-27-59       3   85   58  -0.260   0.170        0
  6403  577-31-339      3   85   58  -0.260   0.170        0
  6404  577-37-1        3   85   58  -0.260   0.170        0
  6405  577-42-343      3   85   58  -0.260   0.170        0
  6406  577-48-343      3   85   58  -0.260   0.170        0
  6407  577-56-16       3   85   58  -0.260   0.170        0
  6408  577-60-322      3   85   58  -0.260   0.170        0
  6409  577-65-302      3   85   58  -0.260   0.170        0
  6410  577-71-365      3   85   58  -0.260   0.170        0
  6411  581-1-365       2   85   60  -0.380   0.450        0
  6412  582-42-343     -2   85   61  -0.420  -0.480        0
  6413  582-56-16      -2   85   61  -0.420  -0.480        0
  6414  586-27-56      -2   85   60  -0.420  -0.300        0
  6415  586-37-316     -2   85   60  -0.420  -0.300        0
  6416  586-42-343     -2   85   60  -0.420  -0.300        0
  6417  586-56-16      -2   85   60  -0.420  -0.300        0
  6418  586-61-55      -2   85   60  -0.420  -0.300        0
  6419  586-66-46      -2   85   60  -0.420  -0.300        0
  6420  553-22-39      -2   85   60   0.460   0.090        0
  6421  553-26-299     -2   85   60   0.460   0.090        0
  6422  553-31-348     -2   85   60   0.460   0.090        0
  6423  553-36-21      -2   85   60   0.460   0.090        0
  6424  584-22-44       3   85   60  -0.420   0.420        0
  6425  584-27-56       3   85   60  -0.420   0.420        0
  6426  584-31-339      3   85   60  -0.420   0.420        0
  6427  584-37-1        3   85   60  -0.420   0.420        0
  6428  584-42-343      3   85   60  -0.420   0.420        0
  6429  584-56-16       3   85   60  -0.420   0.420        0
  6430  584-61-55       3   85   60  -0.420   0.420        0
  6431  584-66-46       3   85   60  -0.420   0.420        0
  6432  585-22-44       3   85   59  -0.420  -0.370        0
  6433  585-27-56       3   85   59  -0.420  -0.370        0
  6434  585-31-339      3   85   59  -0.420  -0.370        0
  6435  585-37-1        3   85   59  -0.420  -0.370        0
  6436  585-42-343      3   85   59  -0.420  -0.370        0
  6437  585-56-16       3   85   59  -0.420  -0.370        0
  6438  585-61-55       3   85   59  -0.420  -0.370        0
  6439  585-66-46       3   85   59  -0.420  -0.370        0
  6440  557-38-1       -2   85   60   0.420  -0.400        0
  6441  557-42-343     -2   85   60   0.420  -0.400        0
  6442  557-66-46      -2   85   60   0.420  -0.400        0
  6443  548-1-365       2   86   60  -0.230   0.420        0
  6444  575-17-55       3   85   62  -0.230   0.080        0
  6445  575-22-44       3   85   62  -0.230   0.080        0
  6446  575-26-299      3   85   62  -0.230   0.080        0
  6447  563-17-55      -2   85   62   0.310  -0.110        0
  6448  563-22-44      -2   85   62   0.310  -0.110        0
  6449  563-66-46      -2   85   62   0.310  -0.110        0
  6450  556-26-299      3   85   62   0.420  -0.240        0
  6451  556-31-335      3   85   62   0.420  -0.240        0
  6452  556-36-317      3   85   62   0.420  -0.240        0
  6453  556-56-10       3   85   62   0.420  -0.240        0
  6454  556-61-56       3   85   62   0.420  -0.240        0
  6455  556-66-34       3   85   62   0.420  -0.240        0
  6456  558-26-299     -2   85   62   0.390   0.470        0
  6457  558-31-317     -2   85   62   0.390   0.470        0
  6458  558-38-319     -2   85   62   0.390   0.470        0
  6459  572-1-365       2   85   61  -0.030  -0.220        0
  6460  543-1-365       1   86   61  -0.080  -0.220        0
  6461  529-48-336     -2   86   63   0.500  -0.490        0
  6462  529-56-10      -2   86   63   0.500  -0.490        0
  6463  529-61-56      -2   86   63   0.500  -0.490        0
  6464  529-66-34      -2   86   63   0.500  -0.490        0
  6465  798-1-365       1   75   62  -0.330  -0.120        0
  6466  794-1-77        1   75   61  -0.140  -0.090        0
  6467  772-3-59        1   76   62  -0.370   0.340        0
  6468  792-1-365       2   75   59  -0.060  -0.080        0
  6469  790-1-274       2   75   59  -0.440  -0.020        0
  6470  790-6-286       2   75   59  -0.440  -0.020        0
  6471  790-11-258      2   75   59  -0.440  -0.020        0
  6472  790-17-4        2   75   59  -0.440  -0.020        0
  6473  790-22-34       2   75   59  -0.440  -0.020        0
  6474  790-27-53       2   75   59  -0.440  -0.020        0
  6475  790-31-335      2   75   59  -0.440  -0.020        0
  6476  790-37-32       2   75   59  -0.440  -0.020        0
  6477  790-42-351      2   75   59  -0.440  -0.020        0
  6478  790-48-337      2   75   59  -0.440  -0.020        0
  6479  790-61-54       2   75   59  -0.440  -0.020        0
  6480  783-1-274       2   75   59   0.360   0.080        0
  6481  783-6-288       2   75   59   0.360   0.080        0
  6482  783-11-258      2   75   59   0.360   0.080        0
  6483  783-17-4        2   75   59   0.360   0.080        0
  6484  783-17-47       2   75   59   0.360   0.080        0
  6485  783-22-34       2   75   59   0.360   0.080        0
  6486  783-26-280      2   75   59   0.360   0.080        0
  6487  783-31-335      2   75   59   0.360   0.080        0
  6488  783-42-351      2   75   59   0.360   0.080        0
  6489  783-61-54       2   75   59   0.360   0.080        0
  6490  799-1-365       1   75   58  -0.330   0.360        0
  6491  774-65-357      1   75   64   0.470   0.200        0
  6492  774-71-362      1   75   64   0.470   0.200        0
  6493  751-1-365       1   77   64  -0.340  -0.360        0
  6494  746-22-38      -2   77   63  -0.340   0.220        0
  6495  746-26-280     -2   77   63  -0.340   0.220        0
  6496  746-32-41      -2   77   63  -0.340   0.220        0
  6497  746-48-362     -2   77   63  -0.340   0.220        0
  6498  746-56-9       -2   77   63  -0.340   0.220        0
  6499  746-61-47      -2   77   63  -0.340   0.220        0
  6500  746-65-357     -2   77   63  -0.340   0.220        0
  6501  746-71-362     -2   77   63  -0.340   0.220        0
  6502  745-1-55        1   77   63  -0.110   0.420        0
  6503  754-48-342      2   76   63   0.470  -0.070        0
  6504  754-56-18       2   76   63   0.470  -0.070        0
  6505  754-61-53       2   76   63   0.470  -0.070        0
  6506  754-66-32       2   76   63   0.470  -0.070        0
  6507  721-12-313      2   78   63   0.420   0.060        0
  6508  721-17-52       2   78   63   0.420   0.060        0
  6509  721-22-38       2   78   63   0.420   0.060        0
  6510  721-26-287      2   78   63   0.420   0.060        0
  6511  721-31-335      2   78   63   0.420   0.060        0
  6512  721-36-318      2   78   63   0.420   0.060        0
  6513  721-42-350      2   78   63   0.420   0.060        0
  6514  721-48-343      2   78   63   0.420   0.060        0
  6515  721-56-19       2   78   63   0.420   0.060        0
  6516  721-61-55       2   78   63   0.420   0.060        0
  6517  721-66-46       2   78   63   0.420   0.060        0
  6518  729-43-4       -2   78   64   0.080  -0.360        0
  6519  729-48-362     -2   78   64   0.080  -0.360        0
  6520  729-56-9       -2   78   64   0.080  -0.360        0
  6521  729-66-1       -2   78   64   0.080  -0.360        0
  6522  729-71-362     -2   78   64   0.080  -0.360        0
  6523  706-17-52      -2   79   65   0.380  -0.480        0
  6524  706-22-37      -2   79   65   0.380  -0.480        0
  6525  706-27-62      -2   79   65   0.380  -0.480        0
  6526  706-31-335     -2   79   65   0.380  -0.480        0
  6527  706-43-4       -2   79   65   0.380  -0.480        0
  6528  706-48-362     -2   79   65   0.380  -0.480        0
  6529  706-56-9       -2   79   65   0.380  -0.480        0
  6530  706-61-47      -2   79   65   0.380  -0.480        0
  6531  706-65-357     -2   79   65   0.380  -0.480        0
  6532  706-71-362     -2   79   65   0.380  -0.480        0
  6533  694-17-52       1   80   66  -0.050   0.380        0
  6534  694-22-38       1   80   66  -0.050   0.380        0
  6535  694-26-285      1   80   66  -0.050   0.380        0
  6536  694-31-344      1   80   66  -0.050   0.380        0
  6537  694-36-354      1   80   66  -0.050   0.380        0
  6538  694-43-4        1   80   66  -0.050   0.380        0
  6539  694-48-362      1   80   66  -0.050   0.380        0
  6540  694-56-9        1   80   66  -0.050   0.380        0
  6541  694-61-47       1   80   66  -0.050   0.380        0
  6542  694-65-357      1   80   66  -0.050   0.380        0
  6543  694-71-362      1   80   66  -0.050   0.380        0
  6544  716-1-365       1   79   64  -0.350   0.070        0
  6545  719-12-121     -2   79   63  -0.430  -0.140        0
  6546  708-8-302      -2   79   63   0.380   0.190        0
  6547  708-12-64      -2   79   63   0.380   0.190        0
  6548  708-17-3       -2   79   63   0.380   0.190        0
  6549  708-22-38      -2   79   63   0.380   0.190        0
  6550  708-26-287     -2   79   63   0.380   0.190        0
  6551  708-31-335     -2   79   63   0.380   0.190        0
  6552  708-42-350     -2   79   63   0.380   0.190        0
  6553  708-48-343     -2   79   63   0.380   0.190        0
  6554  685-1-365       1   81   64  -0.280   0.260        0
  6555  674-22-38      -2   81   64   0.410  -0.220        0
  6556  674-31-344     -2   81   64   0.410  -0.220        0
  6557  674-42-350     -2   81   64   0.410  -0.220        0
  6558  674-48-343     -2   81   64   0.410  -0.220        0
  6559  674-56-19      -2   81   64   0.410  -0.220        0
  6560  674-61-60      -2   81   64   0.410  -0.220        0
  6561  674-66-48      -2   81   64   0.410  -0.220        0
  6562  676-27-10      -2   81   64   0.290   0.400        0
  6563  687-17-3       -2   81   63  -0.440  -0.140        0
  6564  687-22-38      -2   81   63  -0.440  -0.140        0
  6565  687-27-11      -2   81   63  -0.440  -0.140        0
  6566  687-42-350     -2   81   63  -0.440  -0.140        0
  6567  687-48-343     -2   81   63  -0.440  -0.140        0
  6568  687-56-19      -2   81   63  -0.440  -0.140        0
  6569  687-61-55      -2   81   63  -0.440  -0.140        0
  6570  687-66-46      -2   81   63  -0.440  -0.140        0
  6571  686-56-19      -3   81   63  -0.400  -0.140        0
  6572  686-66-46      -3   81   63  -0.400  -0.140        0
  6573  677-17-53       2   81   63   0.140  -0.430        0
  6574  677-22-38       2   81   63   0.140  -0.430        0
  6575  677-26-299      2   81   63   0.140  -0.430        0
  6576  677-31-337      2   81   63   0.140  -0.430        0
  6577  677-37-336      2   81   63   0.140  -0.430        0
  6578  677-42-350      2   81   63   0.140  -0.430        0
  6579  677-48-343      2   81   63   0.140  -0.430        0
  6580  677-56-19       2   81   63   0.140  -0.430        0
  6581  677-61-55       2   81   63   0.140  -0.430        0
  6582  677-66-46       2   81   63   0.140  -0.430        0
  6583  675-5-102       1   81   63   0.410  -0.100        0
  6584  675-11-305      1   81   63   0.410  -0.100        0
  6585  675-27-11       1   81   63   0.410  -0.100        0
  6586  665-17-53       1   82   63  -0.130  -0.040        0
  6587  665-22-38       1   82   63  -0.130  -0.040        0
  6588  665-27-11       1   82   63  -0.130  -0.040        0
  6589  665-36-357      1   82   63  -0.130  -0.040        0
  6590  665-42-350      1   82   63  -0.130  -0.040        0
  6591  665-56-19       1   82   63  -0.130  -0.040        0
  6592  665-61-55       1   82   63  -0.130  -0.040        0
  6593  665-66-46       1   82   63  -0.130  -0.040        0
  6594  657-48-343      1   82   63   0.170  -0.200        0
  6595  649-3-294       2   82   63   0.440  -0.040        0
  6596  649-6-290       2   82   63   0.440  -0.040        0
  6597  649-11-307      2   82   63   0.440  -0.040        0
  6598  649-17-3        2   82   63   0.440  -0.040        0
  6599  649-22-38       2   82   63   0.440  -0.040        0
  6600  649-26-287      2   82   63   0.440  -0.040        0
  6601  649-31-335      2   82   63   0.440  -0.040        0
  6602  649-38-60       2   82   63   0.440  -0.040        0
  6603  649-42-350      2   82   63   0.440  -0.040        0
  6604  649-48-343      2   82   63   0.440  -0.040        0
  6605  649-56-19       2   82   63   0.440  -0.040        0
  6606  649-61-55       2   82   63   0.440  -0.040        0
  6607  651-3-294       1   82   64   0.440  -0.420        0
  6608  651-6-290       1   82   64   0.440  -0.420        0
  6609  651-11-307      1   82   64   0.440  -0.420        0
  6610  651-17-52       1   82   64   0.440  -0.420        0
  6611  651-27-11       1   82   64   0.440  -0.420        0
  6612  651-42-350      1   82   64   0.440  -0.420        0
  6613  651-48-343      1   82   64   0.440  -0.420        0
  6614  651-56-19       1   82   64   0.440  -0.420        0
  6615  651-61-60       1   82   64   0.440  -0.420        0
  6616  651-66-46       1   82   64   0.440  -0.420        0
  6617  679-17-52      -2   81   66   0.020  -0.500        0
  6618  679-22-37      -2   81   66   0.020  -0.500        0
  6619  679-26-336     -2   81   66   0.020  -0.500        0
  6620  679-48-362     -2   81   66   0.020  -0.500        0
  6621  679-56-9       -2   81   66   0.020  -0.500        0
  6622  679-61-47      -2   81   66   0.020  -0.500        0
  6623  679-65-357     -2   81   66   0.020  -0.500        0
  6624  679-71-362     -2   81   66   0.020  -0.500        0
  6625  680-17-52      -2   81   66  -0.020   0.380        0
  6626  680-22-82      -2   81   66  -0.020   0.380        0
  6627  680-27-62      -2   81   66  -0.020   0.380        0
  6628  680-31-335     -2   81   66  -0.020   0.380        0
  6629  680-39-60      -2   81   66  -0.020   0.380        0
  6630  680-43-4       -2   81   66  -0.020   0.380        0
  6631  680-48-362     -2   81   66  -0.020   0.380        0
  6632  680-56-9       -2   81   66  -0.020   0.380        0
  6633  680-61-47      -2   81   66  -0.020   0.380        0
  6634  680-65-357     -2   81   66  -0.020   0.380        0
  6635  680-71-362     -2   81   66  -0.020   0.380        0
  6636  684-17-52      -2   81   65  -0.280  -0.440        0
  6637  684-22-37      -2   81   65  -0.280  -0.440        0
  6638  684-26-349     -2   81   65  -0.280  -0.440        0
  6639  684-31-335     -2   81   65  -0.280  -0.440        0
  6640  684-48-362     -2   81   65  -0.280  -0.440        0
  6641  684-56-9       -2   81   65  -0.280  -0.440        0
  6642  684-66-1       -2   81   65  -0.280  -0.440        0
  6643  684-71-362     -2   81   65  -0.280  -0.440        0
  6644  664-1-365       1   82   65  -0.140  -0.380        0
  6645  654-12-67      -2   82   65   0.320  -0.310        0
  6646  654-17-52      -2   82   65   0.320  -0.310        0
  6647  654-22-37      -2   82   65   0.320  -0.310        0
  6648  654-26-285     -2   82   65   0.320  -0.310        0
  6649  654-31-335     -2   82   65   0.320  -0.310        0
  6650  654-38-32      -2   82   65   0.320  -0.310        0
  6651  654-42-349     -2   82   65   0.320  -0.310        0
  6652  654-48-343     -2   82   65   0.320  -0.310        0
  6653  654-56-19      -2   82   65   0.320  -0.310        0
  6654  654-61-60      -2   82   65   0.320  -0.310        0
  6655  654-66-49      -2   82   65   0.320  -0.310        0
  6656  658-32-41       2   82   67   0.130  -0.420        0
  6657  658-36-357      2   82   67   0.130  -0.420        0
  6658  658-43-4        2   82   67   0.130  -0.420        0
  6659  658-48-362      2   82   67   0.130  -0.420        0
  6660  658-56-9        2   82   67   0.130  -0.420        0
  6661  658-61-47       2   82   67   0.130  -0.420        0
  6662  658-65-357      2   82   67   0.130  -0.420        0
  6663  658-71-362      2   82   67   0.130  -0.420        0
  6664  673-35-360     -2   81   67   0.440   0.490        0
  6665  673-56-9       -2   81   67   0.440   0.490        0
  6666  673-61-47      -2   81   67   0.440   0.490        0
  6667  673-65-357     -2   81   67   0.440   0.490        0
  6668  673-70-334     -2   81   67   0.440   0.490        0
  6669  673-71-362     -2   81   67   0.440   0.490        0
  6670  653-32-41      -2   82   68   0.320  -0.050        0
  6671  653-39-32      -2   82   68   0.320  -0.050        0
  6672  653-43-4       -2   82   68   0.320  -0.050        0
  6673  653-48-362     -2   82   68   0.320  -0.050        0
  6674  653-56-9       -2   82   68   0.320  -0.050        0
  6675  653-61-47      -2   82   68   0.320  -0.050        0
  6676  653-65-357     -2   82   68   0.320  -0.050        0
  6677  653-71-362     -2   82   68   0.320  -0.050        0
  6678  642-36-352      2   83   74  -0.420   0.470        0
  6679  642-43-4        2   83   74  -0.420   0.470        0
  6680  642-48-362      2   83   74  -0.420   0.470        0
  6681  642-56-9        2   83   74  -0.420   0.470        0
  6682  642-61-47       2   83   74  -0.420   0.470        0
  6683  642-65-357      2   83   74  -0.420   0.470        0
  6684  642-71-362      2   83   74  -0.420   0.470        0
  6685  637-26-295     -2   82   73   0.470  -0.390        0
  6686  637-31-349     -2   82   73   0.470  -0.390        0
  6687  637-36-352     -2   82   73   0.470  -0.390        0
  6688  637-43-4       -2   82   73   0.470  -0.390        0
  6689  637-48-362     -2   82   73   0.470  -0.390        0
  6690  637-56-9       -2   82   73   0.470  -0.390        0
  6691  637-61-47      -2   82   73   0.470  -0.390        0
  6692  637-65-357     -2   82   73   0.470  -0.390        0
  6693  637-71-362     -2   82   73   0.470  -0.390        0
  6694  624-7-99        1   84   73  -0.460  -0.130        0
  6695  624-12-103      1   84   73  -0.460  -0.130        0
  6696  624-17-52       1   84   73  -0.460  -0.130        0
  6697  624-22-39       1   84   73  -0.460  -0.130        0
  6698  624-27-5        1   84   73  -0.460  -0.130        0
  6699  624-32-1        1   84   73  -0.460  -0.130        0
  6700  595-37-32      -3   84   73   0.380  -0.160        0
  6701  595-43-4       -3   84   73   0.380  -0.160        0
  6702  595-48-362     -3   84   73   0.380  -0.160        0
  6703  595-56-9       -3   84   73   0.380  -0.160        0
  6704  595-61-47      -2   84   73   0.380  -0.160        0
  6705  595-65-357     -3   84   73   0.380  -0.160        0
  6706  595-71-362     -3   84   73   0.380  -0.160        0
  6707  604-31-323     -2   84   74   0.270   0.210        0
  6708  604-37-32      -2   84   74   0.270   0.210        0
  6709  604-43-4       -2   84   74   0.270   0.210        0
  6710  604-48-362     -2   84   74   0.270   0.210        0
  6711  604-56-9       -2   84   74   0.270   0.210        0
  6712  604-61-47      -2   84   74   0.270   0.210        0
  6713  604-65-357     -2   84   74   0.270   0.210        0
  6714  604-71-362     -2   84   74   0.270   0.210        0
  6715  596-36-352     -2   84   71   0.390  -0.470        0
  6716  596-43-4       -2   84   71   0.390  -0.470        0
  6717  596-48-362     -2   84   71   0.390  -0.470        0
  6718  596-56-9       -2   84   71   0.390  -0.470        0
  6719  596-61-47      -2   84   71   0.390  -0.470        0
  6720  596-65-357     -2   84   71   0.390  -0.470        0
  6721  596-71-362     -2   84   71   0.390  -0.470        0
  6722  609-43-4       -2   84   67   0.040  -0.390        0
  6723  609-56-9       -2   84   67   0.040  -0.390        0
  6724  609-61-47      -2   84   67   0.040  -0.390        0
  6725  609-65-357     -2   84   67   0.040  -0.390        0
  6726  609-71-362     -2   84   67   0.040  -0.390        0
  6727  639-27-10       1   83   65  -0.100   0.470        0
  6728  639-66-49       1   83   65  -0.100   0.470        0
  6729  626-27-10       1   83   66   0.470  -0.330        0
  6730  626-42-349      1   83   66   0.470  -0.330        0
  6731  626-48-343      1   83   66   0.470  -0.330        0
  6732  626-56-19       1   83   66   0.470  -0.330        0
  6733  626-61-60       1   83   66   0.470  -0.330        0
  6734  626-66-49       1   83   66   0.470  -0.330        0
  6735  635-17-52       1   83   66   0.090   0.320        0
  6736  635-22-38       1   83   66   0.090   0.320        0
  6737  635-26-280      1   83   66   0.090   0.320        0
  6738  635-42-349      1   83   66   0.090   0.320        0
  6739  635-48-343      1   83   66   0.090   0.320        0
  6740  635-56-19       1   83   66   0.090   0.320        0
  6741  635-61-60       1   83   66   0.090   0.320        0
  6742  635-66-49       1   83   66   0.090   0.320        0
  6743  629-11-307      1   83   64   0.400   0.460        0
  6744  629-16-364      1   83   64   0.400   0.460        0
  6745  629-21-332      1   83   64   0.400   0.460        0
  6746  629-26-287      1   83   64   0.400   0.460        0
  6747  629-31-335      1   83   64   0.400   0.460        0
  6748  629-37-32       1   83   64   0.400   0.460        0
  6749  629-48-343      1   83   64   0.400   0.460        0
  6750  629-56-23       1   83   64   0.400   0.460        0
  6751  629-61-60       1   83   64   0.400   0.460        0
  6752  629-66-46       1   83   64   0.400   0.460        0
  6753  628-11-307      2   83   65   0.390   0.110        0
  6754  628-17-52       2   83   65   0.390   0.110        0
  6755  628-36-356      2   83   65   0.390   0.110        0
  6756  628-42-349      2   83   65   0.390   0.110        0
  6757  628-48-343      2   83   65   0.390   0.110        0
  6758  628-56-19       2   83   65   0.390   0.110        0
  6759  628-61-60       2   83   65   0.390   0.110        0
  6760  628-66-46       2   83   65   0.390   0.110        0
  6761  630-12-310     -2   83   64   0.400  -0.420        0
  6762  630-17-3       -2   83   64   0.400  -0.420        0
  6763  630-22-38      -2   83   64   0.400  -0.420        0
  6764  630-27-11      -2   83   64   0.400  -0.420        0
  6765  630-36-357     -2   83   64   0.400  -0.420        0
  6766  630-42-350     -2   83   64   0.400  -0.420        0
  6767  630-48-343     -2   83   64   0.400  -0.420        0
  6768  630-56-19      -2   83   64   0.400  -0.420        0
  6769  630-61-60      -2   83   64   0.400  -0.420        0
  6770  630-66-46      -2   83   64   0.400  -0.420        0
  6771  631-17-3       -2   84   63  -0.490  -0.460        0
  6772  631-22-32      -2   84   63  -0.490  -0.460        0
  6773  631-26-289     -2   84   63  -0.490  -0.460        0
  6774  631-31-335     -2   84   63  -0.490  -0.460        0
  6775  631-33-335     -2   84   63  -0.490  -0.460        0
  6776  631-42-350      2   84   63  -0.490  -0.460        0
  6777  631-48-343      2   84   63  -0.490  -0.460        0
  6778  631-56-19       2   84   63  -0.490  -0.460        0
  6779  631-61-55       2   84   63  -0.490  -0.460        0
  6780  631-66-46       2   84   63  -0.490  -0.460        0
  6781  593-27-11       2   84   63   0.430  -0.400        0
  6782  593-61-55       2   84   63   0.430  -0.400        0
  6783  593-66-46       2   84   63   0.430  -0.400        0
  6784  592-1-365       2   84   63   0.430  -0.140        0
  6785  587-7-101      -3   85   63  -0.490  -0.070        0
  6786  587-11-307     -3   85   63  -0.490  -0.070        0
  6787  587-17-53      -3   85   63  -0.490  -0.070        0
  6788  587-26-287     -3   85   63  -0.490  -0.070        0
  6789  587-31-335     -3   85   63  -0.490  -0.070        0
  6790  587-38-60      -2   85   63  -0.490  -0.070        0
  6791  587-42-350     -2   85   63  -0.490  -0.070        0
  6792  587-48-343     -2   85   63  -0.490  -0.070        0
  6793  587-56-19      -2   85   63  -0.490  -0.070        0
  6794  587-61-55       3   85   63  -0.490  -0.070        0
  6795  587-66-46       3   85   63  -0.490  -0.070        0
  6796  591-11-333      2   84   63   0.430   0.130        0
  6797  591-17-53       2   84   63   0.430   0.130        0
  6798  591-42-350      2   84   63   0.430   0.130        0
  6799  597-6-79        2   84   64   0.390  -0.420        0
  6800  597-11-307      2   84   64   0.390  -0.420        0
  6801  597-17-53       2   84   64   0.390  -0.420        0
  6802  597-26-287      2   84   64   0.390  -0.420        0
  6803  597-42-350      2   84   64   0.390  -0.420        0
  6804  597-48-343      2   84   64   0.390  -0.420        0
  6805  597-56-19       2   84   64   0.390  -0.420        0
  6806  597-61-60       2   84   64   0.390  -0.420        0
  6807  597-66-46       2   84   64   0.390  -0.420        0
  6808  607-42-349      1   84   64   0.120   0.430        0
  6809  607-48-343      1   84   64   0.120   0.430        0
  6810  607-56-23       1   84   64   0.120   0.430        0
  6811  607-61-60       1   84   64   0.120   0.430        0
  6812  607-66-46       1   84   64   0.120   0.430        0
  6813  568-48-343     -2   85   64   0.040   0.360        0
  6814  568-56-10      -2   85   64   0.040   0.360        0
  6815  568-61-61      -2   85   64   0.040   0.360        0
  6816  560-1-358      -2   85   64   0.270  -0.030        0
  6817  560-6-340      -2   85   64   0.270  -0.030        0
  6818  560-10-349     -2   85   64   0.270  -0.030        0
  6819  545-38-6       -3   86   63  -0.420  -0.270        0
  6820  545-42-356     -3   86   63  -0.420  -0.270        0
  6821  538-1-365      -2   86   63   0.110   0.390        0
  6822  517-7-49        2   86   63   0.150  -0.130        0
  6823  574-56-24       2   85   66  -0.150  -0.200        0
  6824  574-61-61       2   85   66  -0.150  -0.200        0
  6825  574-66-33       2   85   66  -0.150  -0.200        0
  6826  580-1-365       1   85   66  -0.340  -0.170        0
  6827  555-8-357       1   85   65   0.420   0.470        0
  6828  555-12-67       1   85   65   0.420   0.470        0
  6829  555-27-10       1   85   65   0.420   0.470        0
  6830  555-31-335      1   85   65   0.420   0.470        0
  6831  555-38-60       1   85   65   0.420   0.470        0
  6832  555-56-24       1   85   65   0.420   0.470        0
  6833  555-61-60       1   85   65   0.420   0.470        0
  6834  555-66-33       1   85   65   0.420   0.470        0
  6835  547-1-365       1   86   65  -0.230   0.280        0
  6836  546-27-10       2   86   65  -0.160   0.080        0
  6837  539-56-10       2   86   65   0.070   0.340        0
  6838  539-61-60       2   86   65   0.070   0.340        0
  6839  539-66-33       2   86   65   0.070   0.340        0
  6840  573-48-362      2   85   68   0.340  -0.370        0
  6841  573-56-9        2   85   68   0.340  -0.370        0
  6842  573-71-362      2   85   68   0.340  -0.370        0
  6843  808-48-335      1   74   73   0.280   0.250        0
  6844  808-66-33       1   74   73   0.280   0.250        0
  6845  808-71-61       1   74   73   0.280   0.250        0
  6846  807-26-349      2   74   67   0.330   0.420        0
  6847  807-43-4        2   74   67   0.330   0.420        0
  6848  807-48-341      2   74   67   0.330   0.420        0
  6849  805-56-9        1   74   67   0.360   0.450        0
  6850  807-56-9        2   74   67   0.330   0.420        0
  6851  807-61-47       2   74   67   0.330   0.420        0
  6852  805-65-357      1   74   67   0.360   0.450        0
  6853  807-65-357      2   74   67   0.330   0.420        0
  6854  805-71-362      1   74   67   0.360   0.450        0
  6855  807-71-362      2   74   67   0.330   0.420        0
  6856  810-43-4        2   74   63   0.250  -0.200        0
  6857  810-48-362      2   74   63   0.250  -0.200        0
  6858  810-61-47       2   74   63   0.250  -0.200        0
  6859  810-65-357      2   74   63   0.250  -0.200        0
  6860  810-71-362      2   74   63   0.250  -0.200        0
  6861  767-48-335      1   76   73  -0.190  -0.490        0
  6862  761-31-335      1   76   65  -0.260   0.080        0
  6863  761-37-320      1   76   65  -0.260   0.080        0
  6864  761-42-355      1   76   65  -0.260   0.080        0
  6865  761-48-342      1   76   65  -0.260   0.080        0
  6866  761-56-18       1   76   65  -0.260   0.080        0
  6867  761-61-54       1   76   65  -0.260   0.080        0
  6868  761-66-33       1   76   65  -0.260   0.080        0
  6869  763-42-355      1   76   66   0.090   0.090        0
  6870  763-48-342      1   76   66   0.090   0.090        0
  6871  763-56-18       1   76   66   0.090   0.090        0
  6872  763-61-56       1   76   66   0.090   0.090        0
  6873  763-66-33       1   76   66   0.090   0.090        0
  6874  802-56-9        2   75   64  -0.480  -0.230        0
  6875  802-61-47       2   75   64  -0.480  -0.230        0
  6876  802-65-357      2   75   64  -0.480  -0.230        0
  6877  802-71-362      2   75   64  -0.480  -0.230        0
  6878  781-61-54       1   75   63   0.400   0.380        0
  6879  781-66-33       1   75   63   0.400   0.380        0
  6880  775-56-27       1   75   63   0.440   0.380        0
  6881  775-61-54       1   75   63   0.440   0.380        0
  6882  775-66-33       1   75   63   0.440   0.380        0
  6883  786-66-33       2   75   63   0.320   0.380        0
  6884  782-26-336      2   75   63   0.440  -0.110        0
  6885  782-31-335      2   75   63   0.440  -0.110        0
  6886  782-43-4        2   75   63   0.440  -0.110        0
  6887  782-48-362      2   75   63   0.440  -0.110        0
  6888  782-56-9        2   75   63   0.440  -0.110        0
  6889  782-61-47       2   75   63   0.440  -0.110        0
  6890  782-65-357      2   75   63   0.440  -0.110        0
  6891  782-71-362      2   75   63   0.440  -0.110        0
  6892  755-27-12       1   76   63   0.430  -0.070        0
  6893  755-31-348      1   76   63   0.430  -0.070        0
  6894  755-37-26       1   76   63   0.430  -0.070        0
  6895  755-42-357      1   76   63   0.430  -0.070        0
  6896  755-48-342      1   76   63   0.430  -0.070        0
  6897  755-56-18       1   76   63   0.430  -0.070        0
  6898  755-60-320      1   76   63   0.430  -0.070        0
  6899  755-65-298      1   76   63   0.430  -0.070        0
  6900  755-71-365      1   76   63   0.430  -0.070        0
  6901  776-42-354     -2   75   86   0.290  -0.360        0
  6902  776-48-335     -2   75   86   0.290  -0.360        0
  6903  776-56-17      -2   75   86   0.290  -0.360        0
  6904  776-61-53      -2   75   86   0.290  -0.360        0
  6905  785-32-62       2   75   80   0.460   0.260        0
  6906  785-37-32       2   75   80   0.460   0.260        0
  6907  785-48-334      2   75   80   0.460   0.260        0
  6908  785-56-19       2   75   80   0.460   0.260        0
  6909  785-66-33       2   75   80   0.460   0.260        0
  6910  784-32-62       2   75   80   0.490   0.360        0
  6911  784-66-33       2   75   80   0.490   0.360        0
  6912  777-32-6        1   75   77   0.270  -0.450        0
  6913  777-37-32       1   75   77   0.270  -0.450        0
  6914  777-42-355      1   75   77   0.270  -0.450        0
  6915  777-48-334      1   75   77   0.270  -0.450        0
  6916  777-56-18       1   75   77   0.270  -0.450        0
  6917  778-42-355      2   75   77   0.270  -0.450        0
  6918  778-48-334      2   75   77   0.270  -0.450        0
  6919  778-56-18       2   75   77   0.270  -0.450        0
  6920  778-60-321      2   75   77   0.270  -0.450        0
  6921  778-65-299      2   75   77   0.270  -0.450        0
  6922  778-71-365      2   75   77   0.270  -0.450        0
  6923  779-42-355      2   75   77   0.270  -0.450        0
  6924  779-48-334      2   75   77   0.270  -0.450        0
  6925  779-56-18       2   75   77   0.270  -0.450        0
  6926  779-60-321      2   75   77   0.270  -0.450        0
  6927  779-65-299      2   75   77   0.270  -0.450        0
  6928  779-71-365      2   75   77   0.270  -0.450        0
  6929  801-36-310      2   74   75   0.390  -0.350        0
  6930  797-65-356      2   75   75  -0.340  -0.280        0
  6931  797-71-362      2   75   75  -0.340  -0.280        0
  6932  768-42-355      1   76   75  -0.230  -0.440        0
  6933  768-48-335      1   76   75  -0.230  -0.440        0
  6934  732-36-316     -3   78   77  -0.160  -0.390        0
  6935  765-32-6        2   76   79   0.030  -0.430        0
  6936  765-42-355      2   76   79   0.030  -0.430        0
  6937  765-48-348      2   76   79   0.030  -0.430        0
  6938  765-56-11       2   76   79   0.030  -0.430        0
  6939  765-61-48       2   76   79   0.030  -0.430        0
  6940  765-65-356      2   76   79   0.030  -0.430        0
  6941  765-71-362      2   76   79   0.030  -0.430        0
  6942  718-37-32      -2   79   84  -0.450  -0.470        0
  6943  718-48-334     -2   79   84  -0.450  -0.470        0
  6944  718-56-16      -2   79   84  -0.450  -0.470        0
  6945  718-61-53      -2   79   84  -0.450  -0.470        0
  6946  718-66-32      -2   79   84  -0.450  -0.470        0
  6947  718-71-60      -2   79   84  -0.450  -0.470        0
  6948  728-7-85        1   78   76   0.260   0.000        0
  6949  728-12-124      1   78   76   0.260   0.000        0
  6950  728-17-78       1   78   76   0.260   0.000        0
  6951  728-27-5        1   78   76   0.260   0.000        0
  6952  728-32-6        1   78   76   0.260   0.000        0
  6953  728-37-32       1   78   76   0.260   0.000        0
  6954  728-42-355      1   78   76   0.260   0.000        0
  6955  728-48-334      1   78   76   0.260   0.000        0
  6956  728-56-18       1   78   76   0.260   0.000        0
  6957  681-7-358       2   81   81  -0.070  -0.370        0
  6958  681-12-103      2   81   81  -0.070  -0.370        0
  6959  681-17-78       2   81   81  -0.070  -0.370        0
  6960  681-32-61       2   81   81  -0.070  -0.370        0
  6961  681-37-32       2   81   81  -0.070  -0.370        0
  6962  662-71-365      3   82   84  -0.080   0.280        0
  6963  616-42-355      2   84   81  -0.130  -0.330        0
  6964  616-56-16       2   84   81  -0.130  -0.330        0
  6965  825-71-62       2   74   92  -0.230  -0.090        0
  6966  608-32-62      -2   84   82   0.020   0.400        0
  6967  608-48-348     -2   84   82   0.020   0.400        0
  6968  608-56-11      -2   84   82   0.020   0.400        0
  6969  608-61-41      -2   84   82   0.020   0.400        0
  6970  608-65-355     -2   84   82   0.020   0.400        0
  6971  608-71-365     -2   84   82   0.020   0.400        0
  6972  559-8-73        2   85   85   0.320   0.460        0
  6973  559-12-60       2   85   85   0.320   0.460        0
  6974  559-17-78       2   85   85   0.320   0.460        0
  6975  559-32-62       2   85   85   0.320   0.460        0
  6976  559-36-335      2   85   85   0.320   0.460        0
  6977  806-71-62       2   74   92   0.280  -0.030        0
  6978  771-43-68       3   76   92  -0.420  -0.200        0
  6979  764-43-68       3   76   90   0.010   0.040        0
  6980  764-48-342      3   76   90   0.010   0.040        0
  6981  764-56-17       3   76   90   0.010   0.040        0
  6982  764-61-60       3   76   90   0.010   0.040        0
  6983  764-66-19       3   76   90   0.010   0.040        0
  6984  764-71-63       3   76   90   0.010   0.040        0
  6985  731-32-61       3   78   92  -0.160  -0.130        0
  6986  731-42-355      3   78   92  -0.160  -0.130        0
  6987  730-48-342      3   78   92  -0.010  -0.100        0
  6988  730-56-17       3   78   92  -0.010  -0.100        0
  6989  730-60-320      3   78   92  -0.010  -0.100        0
  6990  730-71-365      3   78   92  -0.040  -0.060        0
  6991  725-48-343      3   78   92   0.190  -0.200        0
  6992  725-56-16       3   78   92   0.190  -0.200        0
  6993  725-61-59       3   78   92   0.190  -0.200        0
  6994  725-66-19       3   78   92   0.190  -0.200        0
  6995  725-71-63       3   78   92   0.190  -0.200        0
  6996  683-7-360       3   81   91  -0.250   0.160        0
  6997  683-12-102      3   81   91  -0.250   0.160        0
  6998  683-17-78       3   81   91  -0.250   0.160        0
  6999  683-32-61       3   81   91  -0.250   0.160        0
  7000  683-37-32       3   81   91  -0.250   0.160        0
  7001  683-48-342      3   81   91  -0.250   0.160        0
  7002  528-56-10      -3   86   63   0.500  -0.460        0
  7003  528-61-56      -3   86   63   0.500  -0.460        0
  7004  528-66-34      -3   86   63   0.500  -0.460        0
  7005  532-56-10       2   86   62   0.420  -0.050        0
  7006  532-61-56       2   86   62   0.420  -0.050        0
  7007  523-42-363      3   86   62   0.500  -0.280        0
  7008  523-48-343      3   86   62   0.500  -0.280        0
  7009  523-56-10       3   86   62   0.500  -0.280        0
  7010  523-61-56       3   86   62   0.500  -0.280        0
  7011  506-31-282      3   87   62   0.450  -0.280        0
  7012  506-56-10       3   87   62   0.450  -0.280        0
  7013  506-60-321      3   87   62   0.450  -0.280        0
  7014  516-56-10      -2   87   61   0.030   0.070        0
  7015  516-61-56      -2   87   61   0.030   0.070        0
  7016  507-17-55      -3   87   61   0.450   0.100        0
  7017  507-22-40      -3   87   61   0.450   0.100        0
  7018  507-26-299     -3   87   61   0.450   0.100        0
  7019  507-31-335     -2   87   61   0.450   0.100        0
  7020  507-48-343     -2   87   61   0.450   0.100        0
  7021  507-56-10      -2   87   61   0.450   0.100        0
  7022  496-17-55       2   88   61   0.370   0.100        0
  7023  496-22-40       2   88   61   0.370   0.100        0
  7024  496-31-335      2   88   61   0.370   0.100        0
  7025  492-56-10       3   88   61   0.410   0.400        0
  7026  492-61-60       3   88   61   0.410   0.400        0
  7027  492-66-31       3   88   61   0.410   0.400        0
  7028  466-56-10       3   90   61  -0.060  -0.380        0
  7029  466-61-60       3   90   61  -0.060  -0.380        0
  7030  466-66-34       3   90   61  -0.060  -0.380        0
  7031  462-56-10       3   90   60   0.090   0.160        0
  7032  462-61-60       3   90   60   0.090   0.160        0
  7033  462-66-34       3   90   60   0.090   0.160        0
  7034  476-56-10       3   89   62   0.400  -0.010        0
  7035  476-61-60       3   89   62   0.400  -0.010        0
  7036  465-56-10      -2   90   61  -0.060  -0.350        0
  7037  465-61-60      -2   90   61  -0.060  -0.350        0
  7038  465-66-34      -2   90   61  -0.060  -0.350        0
  7039  460-1-365       1   90   62   0.280   0.280        0
  7040  458-38-7        3   91   62  -0.490  -0.440        0
  7041  458-48-336      3   91   62  -0.490  -0.440        0
  7042  458-56-10       3   91   62  -0.490  -0.440        0
  7043  458-61-60       3   91   62  -0.490  -0.440        0
  7044  458-66-54       3   91   62  -0.490  -0.440        0
  7045  458-71-34       3   91   62  -0.490  -0.440        0
  7046  440-38-6       -2   91   62   0.130   0.020        0
  7047  440-42-356     -2   91   62   0.130   0.020        0
  7048  440-48-337     -2   91   62   0.130   0.020        0
  7049  443-1-365       1   91   61  -0.100   0.430        0
  7050  439-1-358       1   91   61   0.280   0.300        0
  7051  439-4-350       1   91   61   0.280   0.300        0
  7052  449-10-89       2   91   60  -0.330   0.390        0
  7053  418-48-342      3   93   56   0.040  -0.210        0
  7054  418-56-18       3   93   56   0.040  -0.210        0
  7055  415-48-342      3   93   57   0.310  -0.490        0
  7056  415-56-18       3   93   57   0.310  -0.490        0
  7057  421-34-313      3   93   58  -0.380   0.400        0
  7058  421-48-343      3   93   58  -0.380   0.400        0
  7059  421-56-12       3   93   58  -0.380   0.400        0
  7060  421-61-60       3   93   58  -0.380   0.400        0
  7061  417-34-60       3   93   58   0.080  -0.220        0
  7062  412-6-290      -2   93   62   0.460  -0.440        0
  7063  412-10-297     -2   93   62   0.460  -0.440        0
  7064  412-17-4       -2   93   62   0.460  -0.440        0
  7065  412-27-12      -2   93   62   0.460  -0.440        0
  7066  412-38-6        2   93   62   0.460  -0.440        0
  7067  412-42-356      2   93   62   0.460  -0.440        0
  7068  412-48-336      2   93   62   0.460  -0.440        0
  7069  411-48-336     -2   93   62   0.500  -0.270        0
  7070  411-56-11      -2   93   62   0.500  -0.270        0
  7071  411-61-60      -2   93   62   0.500  -0.270        0
  7072  411-66-54      -2   93   62   0.500  -0.270        0
  7073  411-71-33      -2   93   62   0.500  -0.270        0
  7074  405-38-6       -2   94   62  -0.010   0.280        0
  7075  405-42-355     -2   94   62  -0.010   0.280        0
  7076  405-48-334     -2   94   62  -0.010   0.280        0
  7077  405-56-11      -2   94   62  -0.010   0.280        0
  7078  405-61-60      -2   94   62  -0.010   0.280        0
  7079  405-66-54      -2   94   62  -0.010   0.280        0
  7080  405-71-33       3   94   62  -0.010   0.280        0
  7081  396-17-4       -3   95   62  -0.350  -0.240        0
  7082  396-27-12      -3   95   62  -0.350  -0.240        0
  7083  396-38-6       -2   95   62  -0.350  -0.240        0
  7084  396-42-355     -2   95   62  -0.350  -0.240        0
  7085  396-48-336     -2   95   62  -0.350  -0.240        0
  7086  393-1-358       1   95   62  -0.090  -0.270        0
  7087  398-38-6       -2   94   61   0.490   0.200        0
  7088  398-42-356     -2   94   61   0.490   0.200        0
  7089  387-42-356      3   95   61   0.410  -0.420        0
  7090  387-48-336      3   95   61   0.410  -0.420        0
  7091  387-56-11       3   95   61   0.410  -0.420        0
  7092  387-61-60       3   95   61   0.410  -0.420        0
  7093  387-66-54       3   95   61   0.410  -0.420        0
  7094  387-71-33       3   95   61   0.410  -0.420        0
  7095  386-17-4        2   95   61   0.450   0.470        0
  7096  386-27-12       2   95   61   0.450   0.470        0
  7097  386-48-336      2   95   61   0.450   0.470        0
  7098  381-38-6       -2   96   61  -0.470   0.070        0
  7099  381-42-356     -2   96   61  -0.470   0.070        0
  7100  381-48-336     -2   96   61  -0.470   0.070        0
  7101  361-26-295      3   96   61   0.440  -0.060        0
  7102  361-43-14       3   96   61   0.440  -0.060        0
  7103  361-56-12       3   96   61   0.440  -0.060        0
  7104  361-61-60       3   96   61   0.440  -0.060        0
  7105  361-66-31       3   96   61   0.440  -0.060        0
  7106  365-1-365       1   96   61   0.410   0.430        0
  7107  364-42-356      3   96   62   0.410   0.020        0
  7108  363-1-365       1   96   62   0.410   0.480        0
  7109  391-56-12      -2   95   59   0.070  -0.370        0
  7110  391-61-60      -2   95   59   0.070  -0.370        0
  7111  372-43-14       3   96   59  -0.050   0.440        0
  7112  372-56-12       3   96   59  -0.050   0.440        0
  7113  372-61-60       3   96   59  -0.050   0.440        0
  7114  375-56-19       3   96   58  -0.210  -0.480        0
  7115  358-56-19       3   97   58  -0.330  -0.450        0
  7116  350-56-19       3   98   58  -0.480  -0.450        0
  7117  343-56-19       3   98   58   0.130  -0.450        0
  7118  345-43-6        3   98   58  -0.030  -0.030        0
  7119  356-56-12       3   97   60  -0.020  -0.130        0
  7120  356-61-60       3   97   60  -0.020  -0.130        0
  7121  352-17-4        2   97   60   0.360  -0.040        0
  7122  352-22-51       2   97   60   0.360  -0.040        0
  7123  352-27-14       2   97   60   0.360  -0.040        0
  7124  342-37-342      3   98   60   0.400  -0.260        0
  7125  342-43-14       3   98   60   0.400  -0.260        0
  7126  349-27-13       1   98   63  -0.410  -0.460        0
  7127  348-56-11      -2   98   63  -0.370  -0.460        0
  7128  348-61-54      -2   98   63  -0.370  -0.460        0
  7129  348-66-35      -2   98   63  -0.370  -0.460        0
  7130  351-3-56       -2   97   61   0.400  -0.250        0
  7131  351-22-46      -2   97   61   0.400  -0.250        0
  7132  351-27-62      -2   97   61   0.400  -0.250        0
  7133  351-37-342      2   97   61   0.400  -0.250        0
  7134  351-43-14       2   97   61   0.400  -0.250        0
  7135  351-48-337      2   97   61   0.400  -0.250        0
  7136  351-56-11       2   97   61   0.400  -0.250        0
  7137  351-61-54       2   97   61   0.400  -0.250        0
  7138  351-66-35       2   97   61   0.400  -0.250        0
  7139  346-17-4        1   98   61  -0.140  -0.380        0
  7140  346-27-14       1   98   61  -0.140  -0.380        0
  7141  347-11-304     -2   98   61  -0.220  -0.320        0
  7142  347-17-59      -2   98   61  -0.220  -0.320        0
  7143  347-22-46      -2   98   61  -0.220  -0.320        0
  7144  347-27-14      -2   98   61  -0.220  -0.320        0
  7145  347-31-335     -2   98   61  -0.220  -0.320        0
  7146  347-56-11       2   98   61  -0.220  -0.320        0
  7147  347-61-54       2   98   61  -0.220  -0.320        0
  7148  347-66-35       2   98   61  -0.220  -0.320        0
  7149  341-17-4        2   98   62   0.430   0.120        0
  7150  524-37-354      3   87   73  -0.480   0.500        0
  7151  524-43-4        3   87   73  -0.480   0.500        0
  7152  524-48-335      3   87   73  -0.480   0.500        0
  7153  524-56-9        3   87   73  -0.480   0.500        0
  7154  524-61-47       3   87   73  -0.480   0.500        0
  7155  524-65-357      3   87   73  -0.480   0.500        0
  7156  524-71-362      3   87   73  -0.480   0.500        0
  7157  3418-43-4      -2   87   71  -0.470   0.470        0
  7158  3418-48-362    -2   87   71  -0.470   0.470        0
  7159  3418-56-9      -2   87   71  -0.470   0.470        0
  7160  3418-65-357    -2   87   71  -0.470   0.470        0
  7161  3418-71-362    -2   87   71  -0.470   0.470        0
  7162  525-35-347      2   87   69  -0.470   0.450        0
  7163  525-56-9        2   87   69  -0.470   0.450        0
  7164  525-71-362      2   87   69  -0.470   0.450        0
  7165  514-31-335     -2   87   68   0.070  -0.140        0
  7166  514-36-360     -2   87   68   0.070  -0.140        0
  7167  514-43-4       -2   87   68   0.070  -0.140        0
  7168  514-48-362     -2   87   68   0.070  -0.140        0
  7169  514-56-9       -2   87   68   0.070  -0.140        0
  7170  514-61-47      -2   87   68   0.070  -0.140        0
  7171  514-65-357     -2   87   68   0.070  -0.140        0
  7172  514-71-362     -2   87   68   0.070  -0.140        0
  7173  513-32-41      -2   87   67   0.140  -0.320        0
  7174  513-39-60      -2   87   67   0.140  -0.320        0
  7175  513-43-4       -2   87   67   0.140  -0.320        0
  7176  513-48-362     -2   87   67   0.140  -0.320        0
  7177  513-56-9       -2   87   67   0.140  -0.320        0
  7178  513-61-47      -2   87   67   0.140  -0.320        0
  7179  513-65-357     -2   87   67   0.140  -0.320        0
  7180  513-71-362     -2   87   67   0.140  -0.320        0
  7181  526-11-307      1   87   66  -0.390  -0.200        0
  7182  526-17-53       1   87   66  -0.390  -0.200        0
  7183  526-22-38       1   87   66  -0.390  -0.200        0
  7184  487-17-4       -2   89   65  -0.480   0.380        0
  7185  487-27-10      -2   89   65  -0.480   0.380        0
  7186  487-38-6       -2   89   65  -0.480   0.380        0
  7187  487-42-356     -2   89   65  -0.480   0.380        0
  7188  494-42-355     -2   88   65   0.180   0.440        0
  7189  494-48-334     -2   88   65   0.180   0.440        0
  7190  494-56-10      -2   88   65   0.180   0.440        0
  7191  494-61-60      -2   88   65   0.180   0.440        0
  7192  494-66-49      -2   88   65   0.180   0.440        0
  7193  494-71-33      -2   88   65   0.180   0.440        0
  7194  530-38-6       -2   86   64   0.490  -0.030        0
  7195  530-48-334     -2   86   64   0.490  -0.030        0
  7196  530-56-10      -2   86   64   0.490  -0.030        0
  7197  530-61-60      -2   86   64   0.490  -0.030        0
  7198  530-66-49      -2   86   64   0.490  -0.030        0
  7199  530-71-33      -2   86   64   0.490  -0.030        0
  7200  509-38-6       -2   87   64   0.490  -0.030        0
  7201  509-42-355     -2   87   64   0.490  -0.030        0
  7202  509-48-334     -2   87   64   0.490  -0.030        0
  7203  509-56-10      -2   87   64   0.490  -0.030        0
  7204  509-61-60      -2   87   64   0.490  -0.030        0
  7205  509-66-49      -2   87   64   0.490  -0.030        0
  7206  509-71-33      -2   87   64   0.490  -0.030        0
  7207  518-17-3        2   87   63  -0.080  -0.400        0
  7208  518-27-11       2   87   63  -0.080  -0.400        0
  7209  518-42-355      2   87   63  -0.080  -0.400        0
  7210  510-1-358       1   87   63   0.380   0.350        0
  7211  495-1-358       2   88   63   0.370  -0.430        0
  7212  491-7-49        2   88   64   0.410  -0.160        0
  7213  490-7-49        1   88   64   0.480   0.370        0
  7214  490-17-4        1   88   64   0.480   0.370        0
  7215  490-27-10       1   88   64   0.480   0.370        0
  7216  481-38-7       -3   89   64   0.020  -0.020        0
  7217  481-42-355     -3   89   64   0.020  -0.020        0
  7218  481-48-334     -3   89   64   0.020  -0.020        0
  7219  481-56-10      -3   89   64   0.020  -0.020        0
  7220  481-61-60      -2   89   64   0.020  -0.020        0
  7221  481-66-49      -2   89   64   0.020  -0.020        0
  7222  481-71-33      -2   89   64   0.020  -0.020        0
  7223  473-38-7       -2   89   64   0.440   0.500        0
  7224  473-42-355     -2   89   64   0.440   0.500        0
  7225  484-38-6        3   89   63  -0.250  -0.260        0
  7226  455-22-51      -2   90   64   0.470   0.370        0
  7227  455-27-11      -2   90   64   0.470   0.370        0
  7228  455-38-7       -2   90   64   0.470   0.370        0
  7229  455-42-355     -2   90   64   0.470   0.370        0
  7230  455-48-336     -2   90   64   0.470   0.370        0
  7231  457-1-358       1   90   63   0.470   0.100        0
  7232  456-38-6        3   90   64   0.470  -0.320        0
  7233  456-42-356      3   90   64   0.470  -0.320        0
  7234  456-48-334      3   90   64   0.470  -0.320        0
  7235  456-56-10       3   90   64   0.470  -0.320        0
  7236  456-61-60       3   90   64   0.470  -0.320        0
  7237  456-66-54       3   90   64   0.470  -0.320        0
  7238  456-71-33       3   90   64   0.470  -0.320        0
  7239  454-8-253      -2   91   65  -0.490  -0.400        0
  7240  454-38-6       -2   91   65  -0.490  -0.400        0
  7241  454-42-355     -2   91   65  -0.490  -0.400        0
  7242  454-48-334     -2   91   65  -0.490  -0.400        0
  7243  454-56-10      -2   91   65  -0.490  -0.400        0
  7244  454-61-60      -2   91   65  -0.490  -0.400        0
  7245  454-66-49      -2   91   65  -0.490  -0.400        0
  7246  454-71-33      -2   91   65  -0.490  -0.400        0
  7247  483-48-334      2   89   65  -0.250  -0.050        0
  7248  475-1-365       1   89   65   0.400  -0.370        0
  7249  472-17-4       -2   89   66   0.480  -0.490        0
  7250  472-27-12      -2   89   66   0.480  -0.490        0
  7251  472-38-6       -2   89   66   0.480  -0.490        0
  7252  472-42-355     -2   89   66   0.480  -0.490        0
  7253  472-48-334     -2   89   66   0.480  -0.490        0
  7254  464-17-4        3   90   65  -0.060   0.410        0
  7255  464-27-12       3   90   65  -0.060   0.410        0
  7256  464-48-336      3   90   65  -0.060   0.410        0
  7257  442-71-61       2   91   74  -0.120   0.290        0
  7258  438-48-336      1   91   66   0.310   0.330        0
  7259  436-71-336      3   91   65   0.350   0.440        0
  7260  422-17-55       1   93   66  -0.420  -0.390        0
  7261  422-22-38       1   93   66  -0.420  -0.390        0
  7262  422-27-12       1   93   66  -0.420  -0.390        0
  7263  422-31-335      1   93   66  -0.420  -0.390        0
  7264  422-38-91       1   93   66  -0.420  -0.390        0
  7265  426-48-336      1   92   66   0.190   0.230        0
  7266  426-56-13       1   92   66   0.190   0.230        0
  7267  426-66-34       1   92   66   0.190   0.230        0
  7268  430-7-49        2   92   64  -0.420  -0.450        0
  7269  430-17-4        2   92   64  -0.420  -0.450        0
  7270  430-27-10       2   92   64  -0.420  -0.450        0
  7271  432-38-6       -2   92   64  -0.490   0.010        0
  7272  432-42-356     -2   92   64  -0.490   0.010        0
  7273  432-48-334     -2   92   64  -0.490   0.010        0
  7274  432-56-10      -2   92   64  -0.490   0.010        0
  7275  432-61-60      -2   92   64  -0.490   0.010        0
  7276  432-66-49      -2   92   64  -0.490   0.010        0
  7277  432-71-33      -2   92   64  -0.490   0.010        0
  7278  452-48-335      2   91   64  -0.450  -0.450        0
  7279  452-56-11       2   91   64  -0.450  -0.450        0
  7280  431-1-358       1   92   63  -0.450   0.160        0
  7281  431-6-340       1   92   63  -0.450   0.160        0
  7282  431-11-333      1   92   63  -0.450   0.160        0
  7283  431-36-38       2   92   63  -0.450   0.160        0
  7284  429-42-356     -2   92   64  -0.030   0.400        0
  7285  429-48-334     -2   92   64  -0.030   0.400        0
  7286  429-56-11      -2   92   64  -0.030   0.400        0
  7287  429-61-60      -2   92   64  -0.030   0.400        0
  7288  429-66-54      -2   92   64  -0.030   0.400        0
  7289  429-71-33      -2   92   64  -0.030   0.400        0
  7290  420-17-7       -2   93   64  -0.380  -0.410        0
  7291  420-27-10      -2   93   64  -0.380  -0.410        0
  7292  420-48-335      2   93   64  -0.380  -0.410        0
  7293  407-38-6       -2   94   63  -0.040  -0.200        0
  7294  407-42-355     -2   94   63  -0.040  -0.200        0
  7295  407-48-334     -2   94   63  -0.040  -0.200        0
  7296  401-38-6        2   94   64   0.420  -0.480        0
  7297  401-42-355      2   94   64   0.420  -0.480        0
  7298  401-48-335      2   94   64   0.420  -0.480        0
  7299  410-42-355      3   94   64  -0.310  -0.150        0
  7300  410-48-334      3   94   64  -0.310  -0.150        0
  7301  410-56-10       3   94   64  -0.310  -0.150        0
  7302  410-61-60       3   94   64  -0.310  -0.150        0
  7303  410-66-49       3   94   64  -0.310  -0.150        0
  7304  410-71-33       3   94   64  -0.310  -0.150        0
  7305  376-31-348      1   93   68   0.120  -0.040        0
  7306  376-37-19       1   93   68   0.120  -0.040        0
  7307  376-43-47       1   93   68   0.120  -0.040        0
  7308  376-48-343      1   93   68   0.120  -0.040        0
  7309  376-56-11       1   93   68   0.120  -0.040        0
  7310  376-60-321      1   93   68   0.120  -0.040        0
  7311  376-65-298      1   93   68   0.120  -0.040        0
  7312  414-71-365      2   93   68   0.300   0.490        0
  7313  416-34-357     -2   93   69   0.150   0.430        0
  7314  366-17-55       2   96   68   0.170   0.420        0
  7315  366-22-33       2   96   68   0.170   0.420        0
  7316  366-27-10       2   96   68   0.170   0.420        0
  7317  366-33-10       2   96   68   0.170   0.420        0
  7318  370-17-55      -2   96   65  -0.020   0.090        0
  7319  370-22-46      -2   96   65  -0.020   0.090        0
  7320  370-31-335     -2   96   65  -0.020   0.090        0
  7321  370-37-91      -2   96   65  -0.020   0.090        0
  7322  394-27-10       1   95   64  -0.090   0.370        0
  7323  389-42-355      3   95   64   0.070   0.010        0
  7324  389-48-334      3   95   64   0.070   0.010        0
  7325  389-56-10       3   95   64   0.070   0.010        0
  7326  389-61-60       3   95   64   0.070   0.010        0
  7327  389-66-48       3   95   64   0.070   0.010        0
  7328  389-71-33       3   95   64   0.070   0.010        0
  7329  382-48-334     -2   95   64   0.490   0.010        0
  7330  395-17-4       -2   95   63  -0.280  -0.330        0
  7331  395-27-13      -2   95   63  -0.280  -0.330        0
  7332  395-38-6        2   95   63  -0.280  -0.330        0
  7333  395-42-356      2   95   63  -0.280  -0.330        0
  7334  395-48-334      2   95   63  -0.280  -0.330        0
  7335  395-56-11       2   95   63  -0.280  -0.330        0
  7336  395-61-60       2   95   63  -0.280  -0.330        0
  7337  395-66-54       2   95   63  -0.280  -0.330        0
  7338  395-71-33       2   95   63  -0.280  -0.330        0
  7339  379-42-356      2   96   63  -0.440  -0.330        0
  7340  379-48-334      2   96   63  -0.440  -0.330        0
  7341  379-56-11       2   96   63  -0.440  -0.330        0
  7342  385-7-49        2   95   63   0.450   0.130        0
  7343  384-7-49        1   95   63   0.450   0.420        0
  7344  374-1-358       1   96   63  -0.130  -0.130        0
  7345  362-38-6       -2   96   63   0.440  -0.230        0
  7346  362-42-355     -2   96   63   0.440  -0.230        0
  7347  362-48-334     -2   96   63   0.440  -0.230        0
  7348  362-56-10      -2   96   63   0.440  -0.230        0
  7349  362-61-60      -2   96   63   0.440  -0.230        0
  7350  362-66-48      -2   96   63   0.440  -0.230        0
  7351  362-71-33       3   96   63   0.440  -0.230        0
  7352  360-26-313     -3   96   64   0.440  -0.480        0
  7353  360-38-6       -3   96   64   0.440  -0.480        0
  7354  371-38-6       -3   96   64  -0.020   0.040        0
  7355  371-42-355     -3   96   64  -0.020   0.040        0
  7356  355-48-342      2   97   63  -0.020   0.100        0
  7357  355-56-13       2   97   63  -0.020   0.100        0
  7358  355-61-61       2   97   63  -0.020   0.100        0
  7359  355-66-32       2   97   63  -0.020   0.100        0
  7360  353-1-365       1   97   63   0.320   0.330        0
  7361  353-8-22        1   97   63   0.320   0.330        0
  7362  353-11-304      1   97   63   0.320   0.330        0
  7363  353-61-61       1   97   63   0.320   0.330        0
  7364  353-66-32       1   97   63   0.320   0.330        0
  7365  501-27-60       3   88   84  -0.310   0.130        0
  7366  501-37-32       3   88   84  -0.310   0.130        0
  7367  501-43-53       3   88   84  -0.310   0.130        0
  7368  501-48-336      3   88   84  -0.310   0.130        0
  7369  501-56-17       3   88   84  -0.310   0.130        0
  7370  501-60-320      3   88   84  -0.310   0.130        0
  7371  501-65-299      3   88   84  -0.310   0.130        0
  7372  501-71-365      2   88   84  -0.310   0.130        0
  7373  536-61-52       1   86   75   0.180   0.450        0
  7374  536-66-18       1   86   75   0.180   0.450        0
  7375  536-71-62       1   86   75   0.180   0.450        0
  7376  540-43-50       1   86   76   0.020  -0.420        0
  7377  540-56-17       1   86   76   0.020  -0.420        0
  7378  451-37-32       3   91   85  -0.330   0.270        0
  7379  451-43-53       3   91   85  -0.330   0.270        0
  7380  451-48-336      3   91   85  -0.330   0.270        0
  7381  451-56-17       3   91   85  -0.330   0.270        0
  7382  451-61-52       3   91   85  -0.330   0.270        0
  7383  451-71-336      3   91   85  -0.330   0.270        0
  7384  419-71-61       2   93   76  -0.410   0.460        0
  7385  425-71-61       3   92   84   0.300   0.040        0
  7386  397-48-336      3   94   83   0.470   0.000        0
  7387  378-71-61       2   96   75  -0.410  -0.210        0
  7388  477-7-99        1   89   75   0.350   0.200        0
  7389  477-11-60       1   89   75   0.350   0.200        0
  7390  477-17-53       1   89   75   0.350   0.200        0
  7391  477-22-39       1   89   75   0.350   0.200        0
  7392  477-32-6        1   89   75   0.350   0.200        0
  7393  477-37-32       1   89   75   0.350   0.200        0
  7394  478-48-335      1   89   75   0.280   0.230        0
  7395  478-56-17       1   89   75   0.280   0.230        0
  7396  218-42-337      3  107   51  -0.230  -0.470        0
  7397  337-37-343      3   99   62  -0.300   0.220        0
  7398  337-43-14       3   99   62  -0.300   0.220        0
  7399  337-56-12       3   99   62  -0.300   0.220        0
  7400  337-61-61       3   99   62  -0.300   0.220        0
  7401  337-66-31       3   99   62  -0.300   0.220        0
  7402  328-56-11      -2   99   62   0.350   0.150        0
  7403  328-61-61      -2   99   62   0.350   0.150        0
  7404  328-66-32      -2   99   62   0.350   0.150        0
  7405  329-1-365       2   99   61   0.280  -0.380        0
  7406  327-1-365       1   99   61   0.430  -0.280        0
  7407  326-26-319     -3  100   61  -0.500   0.140        0
  7408  326-31-335     -3  100   61  -0.500   0.140        0
  7409  326-38-32      -3  100   61  -0.500   0.140        0
  7410  326-56-11      -3  100   61  -0.500   0.140        0
  7411  326-61-54      -3  100   61  -0.500   0.140        0
  7412  326-66-32      -3  100   61  -0.500   0.140        0
  7413  321-43-14       3  100   61  -0.190  -0.350        0
  7414  321-56-12       3  100   61  -0.190  -0.350        0
  7415  322-1-358       2  100   61  -0.110  -0.090        0
  7416  322-6-340       2  100   61  -0.110  -0.090        0
  7417  322-11-333      2  100   61  -0.110  -0.090        0
  7418  322-16-301      2  100   61  -0.110  -0.090        0
  7419  322-22-46       2  100   61  -0.110  -0.090        0
  7420  322-27-32       2  100   61  -0.110  -0.090        0
  7421  308-34-333     -3  100   61   0.460  -0.350        0
  7422  316-7-283       2  100   62   0.230  -0.440        0
  7423  316-11-333      2  100   62   0.230  -0.440        0
  7424  316-16-301      2  100   62   0.230  -0.440        0
  7425  316-22-46       2  100   62   0.230  -0.440        0
  7426  316-27-11       2  100   62   0.230  -0.440        0
  7427  316-31-335      2  100   62   0.230  -0.440        0
  7428  316-38-32       2  100   62   0.230  -0.440        0
  7429  316-48-337      2  100   62   0.230  -0.440        0
  7430  316-56-11       2  100   62   0.230  -0.440        0
  7431  316-60-321      2  100   62   0.230  -0.440        0
  7432  316-65-300      2  100   62   0.230  -0.440        0
  7433  310-1-365       1  100   61   0.380   0.340        0
  7434  310-27-49       1  100   61   0.380   0.340        0
  7435  310-56-11       1  100   61   0.380   0.340        0
  7436  310-61-54       1  100   61   0.380   0.340        0
  7437  310-66-32       1  100   61   0.380   0.340        0
  7438  324-1-365       2  100   62  -0.340  -0.340        0
  7439  307-56-11       1  100   62   0.460   0.450        0
  7440  335-1-365       1   99   60  -0.150   0.290        0
  7441  333-56-9       -2   99   60  -0.030   0.130        0
  7442  323-56-11       2  100   61  -0.300  -0.480        0
  7443  323-61-61       2  100   61  -0.300  -0.480        0
  7444  311-17-5       -3  100   60   0.310  -0.030        0
  7445  311-27-14      -3  100   60   0.310  -0.030        0
  7446  314-56-25       3  100   60   0.270   0.060        0
  7447  314-61-62       3  100   60   0.270   0.060        0
  7448  318-48-343      3  100   58   0.160  -0.260        0
  7449  302-42-348      3  101   58  -0.160   0.040        0
  7450  301-22-62       3  101   58  -0.120   0.460        0
  7451  301-27-6        3  101   58  -0.120   0.460        0
  7452  301-38-32       3  101   58  -0.120   0.460        0
  7453  295-22-62       3  101   58   0.380  -0.350        0
  7454  295-38-5        3  101   58   0.380  -0.350        0
  7455  295-56-24       3  101   58   0.380  -0.350        0
  7456  295-66-32       3  101   58   0.380  -0.350        0
  7457  281-38-5        3  102   58   0.150  -0.160        0
  7458  281-42-348      3  102   58   0.150  -0.160        0
  7459  270-22-62       3  103   58  -0.400  -0.350        0
  7460  270-38-32       3  103   58  -0.400  -0.350        0
  7461  271-38-5        3  102   58   0.450  -0.120        0
  7462  271-42-348      3  102   58   0.450  -0.120        0
  7463  271-48-337      3  102   58   0.450  -0.120        0
  7464  271-56-10       3  102   58   0.450  -0.120        0
  7465  271-61-61       3  102   58   0.450  -0.120        0
  7466  271-66-61       3  102   58   0.450  -0.120        0
  7467  290-56-25      -2  101   59   0.380   0.410        0
  7468  290-61-62      -2  101   59   0.380   0.410        0
  7469  280-17-4        1  102   59   0.150   0.340        0
  7470  280-27-14       1  102   59   0.150   0.340        0
  7471  278-7-274      -2  102   60   0.180   0.060        0
  7472  274-7-274      -2  102   61   0.180   0.210        0
  7473  274-38-7       -2  102   61   0.180   0.210        0
  7474  274-42-355     -2  102   61   0.180   0.210        0
  7475  274-48-335     -2  102   61   0.180   0.210        0
  7476  274-56-11      -2  102   61   0.180   0.210        0
  7477  279-17-5       -2  102   62   0.140  -0.040        0
  7478  279-42-355     -2  102   62   0.140  -0.040        0
  7479  282-42-355     -2  102   62   0.070  -0.040        0
  7480  282-48-335     -2  102   62   0.070  -0.040        0
  7481  282-56-11      -2  102   62   0.070  -0.040        0
  7482  282-61-60      -2  102   62   0.070  -0.040        0
  7483  282-66-48      -2  102   62   0.070  -0.040        0
  7484  265-42-355     -2  103   62   0.020   0.150        0
  7485  265-48-335     -2  103   62   0.020   0.150        0
  7486  265-56-11      -2  103   62   0.020   0.150        0
  7487  265-61-60      -2  103   62   0.020   0.150        0
  7488  265-66-48      -2  103   62   0.020   0.150        0
  7489  265-71-34      -2  103   62   0.020   0.150        0
  7490  264-38-7        2  103   62   0.020  -0.080        0
  7491  264-42-355      2  103   62   0.020  -0.080        0
  7492  264-48-335      2  103   62   0.020  -0.080        0
  7493  264-56-11       2  103   62   0.020  -0.080        0
  7494  264-61-60       2  103   62   0.020  -0.080        0
  7495  264-66-48       2  103   62   0.020  -0.080        0
  7496  264-71-34       2  103   62   0.020  -0.080        0
  7497  268-1-365       2  103   61  -0.050   0.340        0
  7498  268-38-7        2  103   61  -0.050   0.340        0
  7499  268-43-47       2  103   61  -0.050   0.340        0
  7500  268-48-335      2  103   61  -0.050   0.340        0
  7501  250-7-274      -2  104   61  -0.320  -0.020        0
  7502  250-17-5       -2  104   61  -0.320  -0.020        0
  7503  250-38-7       -2  104   61  -0.320  -0.020        0
  7504  250-42-355     -2  104   61  -0.320  -0.020        0
  7505  250-56-11      -2  104   61  -0.320  -0.020        0
  7506  250-61-60      -2  104   61  -0.320  -0.020        0
  7507  250-66-48      -2  104   61  -0.320  -0.020        0
  7508  250-71-34      -2  104   61  -0.320  -0.020        0
  7509  252-48-335     -2  104   62  -0.320  -0.300        0
  7510  256-42-355     -2  103   60   0.370   0.160        0
  7511  256-48-335     -2  103   60   0.370   0.160        0
  7512  256-56-11      -2  103   60   0.370   0.160        0
  7513  256-61-60      -2  103   60   0.370   0.160        0
  7514  256-66-48      -2  103   60   0.370   0.160        0
  7515  256-71-34      -2  103   60   0.370   0.160        0
  7516  261-17-5       -3  103   59   0.180   0.180        0
  7517  261-17-64      -3  103   59   0.180   0.180        0
  7518  261-22-41      -3  103   59   0.180   0.180        0
  7519  262-48-338      3  103   59   0.100   0.180        0
  7520  262-56-9        3  103   59   0.100   0.180        0
  7521  262-61-62       3  103   59   0.100   0.180        0
  7522  247-1-365       2  104   59   0.170   0.410        0
  7523  247-7-291       2  104   59   0.170   0.410        0
  7524  247-27-11       2  104   59   0.170   0.410        0
  7525  266-36-1        2  103   58   0.030   0.070        0
  7526  260-48-338      2  103   58   0.330  -0.220        0
  7527  259-56-9        3  103   58   0.250  -0.220        0
  7528  259-61-62       3  103   58   0.250  -0.220        0
  7529  259-66-47       3  103   58   0.250  -0.220        0
  7530  259-71-35       3  103   58   0.250  -0.220        0
  7531  269-38-4        3  103   55  -0.240  -0.290        0
  7532  269-42-337      3  103   55  -0.240  -0.290        0
  7533  269-48-337      3  103   55  -0.240  -0.290        0
  7534  269-56-10       3  103   55  -0.240  -0.290        0
  7535  269-61-61       3  103   55  -0.240  -0.290        0
  7536  269-66-61       3  103   55  -0.240  -0.290        0
  7537  257-56-10       3  104   55  -0.480  -0.160        0
  7538  257-61-61       3  104   55  -0.480  -0.160        0
  7539  257-66-61       3  104   55  -0.480  -0.160        0
  7540  254-38-4        3  104   55  -0.360  -0.290        0
  7541  254-42-337      3  104   55  -0.360  -0.290        0
  7542  253-48-337     -2  104   56  -0.400   0.440        0
  7543  253-56-10      -2  104   56  -0.400   0.440        0
  7544  253-61-61      -2  104   56  -0.400   0.440        0
  7545  253-66-61      -2  104   56  -0.400   0.440        0
  7546  248-38-5        3  104   51   0.060   0.280        0
  7547  248-42-337      3  104   51   0.060   0.280        0
  7548  248-48-337      3  104   51   0.060   0.280        0
  7549  241-48-337      3  105   56  -0.480   0.440        0
  7550  241-56-10       3  105   56  -0.480   0.440        0
  7551  241-61-61       3  105   56  -0.480   0.440        0
  7552  241-66-61       3  105   56  -0.480   0.440        0
  7553  229-48-337      3  106   57  -0.490  -0.500        0
  7554  229-56-11       3  106   57  -0.490  -0.500        0
  7555  242-38-4        3  105   55  -0.370  -0.230        0
  7556  242-42-337      3  105   55  -0.370  -0.230        0
  7557  243-56-10       3  105   55  -0.370  -0.330        0
  7558  238-56-10       3  105   55  -0.180  -0.290        0
  7559  235-56-10       3  105   55   0.050  -0.330        0
  7560  228-38-5        3  106   55  -0.490  -0.230        0
  7561  228-42-348      3  106   55  -0.490  -0.230        0
  7562  228-48-337      3  106   55  -0.490  -0.230        0
  7563  230-48-337     -2  105   55   0.470  -0.290        0
  7564  230-56-10      -2  105   55   0.470  -0.290        0
  7565  232-31-335     -3  105   58   0.320   0.040        0
  7566  232-37-361     -3  105   58   0.320   0.040        0
  7567  232-48-337     -2  105   58   0.320   0.040        0
  7568  232-56-9       -2  105   58   0.320   0.040        0
  7569  232-61-62      -2  105   58   0.320   0.040        0
  7570  232-66-47      -2  105   58   0.320   0.040        0
  7571  232-71-35      -2  105   58   0.320   0.040        0
  7572  237-17-5        3  105   60  -0.060  -0.430        0
  7573  237-27-11       3  105   60  -0.060  -0.430        0
  7574  237-37-357      3  105   60  -0.060  -0.430        0
  7575  237-42-355      3  105   60  -0.060  -0.430        0
  7576  237-48-335      3  105   60  -0.060  -0.430        0
  7577  237-56-11       3  105   60  -0.060  -0.430        0
  7578  237-61-60       3  105   60  -0.060  -0.430        0
  7579  237-66-48       3  105   60  -0.060  -0.430        0
  7580  237-71-34       3  105   60  -0.060  -0.430        0
  7581  239-1-365      -2  105   61  -0.290  -0.320        0
  7582  239-42-355     -2  105   61  -0.290  -0.320        0
  7583  240-22-1       -3  105   61  -0.290  -0.320        0
  7584  240-38-7       -3  105   61  -0.290  -0.320        0
  7585  240-48-335     -3  105   61  -0.290  -0.320        0
  7586  240-56-10      -3  105   61  -0.290  -0.320        0
  7587  240-66-48      -3  105   61  -0.290  -0.320        0
  7588  240-71-34      -3  105   61  -0.290  -0.320        0
  7589  231-48-335      3  105   61   0.320  -0.150        0
  7590  231-56-10       3  105   61   0.320  -0.150        0
  7591  233-17-5       -3  105   61   0.130  -0.320        0
  7592  233-38-7       -3  105   61   0.130  -0.320        0
  7593  233-42-355     -3  105   61   0.130  -0.320        0
  7594  234-42-355     -3  105   61   0.210  -0.320        0
  7595  234-48-335     -3  105   61   0.210  -0.320        0
  7596  234-56-10      -3  105   61   0.210  -0.320        0
  7597  234-60-322     -3  105   61   0.210  -0.320        0
  7598  234-66-48      -3  105   61   0.210  -0.320        0
  7599  234-71-34      -3  105   61   0.210  -0.320        0
  7600  213-1-310       2  107   61  -0.030  -0.410        0
  7601  213-6-310       2  107   61  -0.030  -0.410        0
  7602  213-27-11       2  107   61  -0.030  -0.410        0
  7603  213-42-355      2  107   61  -0.030  -0.410        0
  7604  216-7-291      -2  107   60  -0.300  -0.360        0
  7605  216-22-32      -2  107   60  -0.300  -0.360        0
  7606  216-27-11      -2  107   60  -0.300  -0.360        0
  7607  216-38-7       -2  107   60  -0.300  -0.360        0
  7608  216-42-355     -2  107   60  -0.300  -0.360        0
  7609  210-1-365       2  107   59   0.040   0.080        0
  7610  210-38-7        2  107   59   0.040   0.080        0
  7611  210-42-355      2  107   59   0.040   0.080        0
  7612  210-48-335      2  107   59   0.040   0.080        0
  7613  210-56-11       2  107   59   0.040   0.080        0
  7614  189-17-6       -2  108   59   0.500   0.050        0
  7615  189-22-54      -2  108   59   0.500   0.050        0
  7616  189-27-11      -2  108   59   0.500   0.050        0
  7617  189-38-7       -2  108   59   0.500   0.050        0
  7618  189-42-355     -2  108   59   0.500   0.050        0
  7619  189-48-335     -2  108   59   0.500   0.050        0
  7620  189-56-9       -2  108   59   0.500   0.050        0
  7621  189-61-60      -2  108   59   0.500   0.050        0
  7622  189-66-48      -2  108   59   0.500   0.050        0
  7623  189-71-34      -2  108   59   0.500   0.050        0
  7624  200-38-7       -2  108   60  -0.310  -0.030        0
  7625  200-42-356     -2  108   60  -0.310  -0.030        0
  7626  200-48-335     -2  108   60  -0.310  -0.030        0
  7627  200-56-9       -2  108   60  -0.310  -0.030        0
  7628  200-61-60      -2  108   60  -0.310  -0.030        0
  7629  200-66-48      -2  108   60  -0.310  -0.030        0
  7630  201-38-7       -2  107   59   0.390  -0.370        0
  7631  201-42-356     -2  107   59   0.390  -0.370        0
  7632  201-48-335     -2  107   59   0.390  -0.370        0
  7633  201-56-11      -2  107   59   0.390  -0.370        0
  7634  201-61-60      -2  107   59   0.390  -0.370        0
  7635  201-66-48      -2  107   59   0.390  -0.370        0
  7636  201-71-34      -2  107   59   0.390  -0.370        0
  7637  199-17-5        3  107   58   0.460   0.300        0
  7638  199-22-54       3  107   58   0.460   0.300        0
  7639  199-27-11       3  107   58   0.460   0.300        0
  7640  199-38-7        3  107   58   0.460   0.300        0
  7641  199-42-356      3  107   58   0.460   0.300        0
  7642  199-48-335      3  107   58   0.460   0.300        0
  7643  217-38-5        2  107   55  -0.230  -0.100        0
  7644  217-42-348      3  107   55  -0.230  -0.100        0
  7645  220-38-5       -2  107   55  -0.380  -0.190        0
  7646  220-42-348     -2  107   55  -0.380  -0.190        0
  7647  220-56-10      -2  107   55  -0.380  -0.190        0
  7648  220-61-61      -2  107   55  -0.380  -0.190        0
  7649  220-66-61      -2  107   55  -0.380  -0.190        0
  7650  204-38-5        2  108   55  -0.460  -0.260        0
  7651  204-42-348      2  108   55  -0.460  -0.260        0
  7652  202-38-5       -2  108   55  -0.380  -0.200        0
  7653  202-42-348     -2  108   55  -0.380  -0.200        0
  7654  198-39-190     -2  108   55  -0.040  -0.160        0
  7655  194-39-138     -2  108   55   0.380  -0.030        0
  7656  190-56-10       3  108   55   0.420  -0.130        0
  7657  190-61-61       3  108   55   0.420  -0.130        0
  7658  192-38-5        3  108   54   0.460  -0.240        0
  7659  192-42-337      3  108   54   0.460  -0.240        0
  7660  191-39-212     -2  108   54   0.460  -0.110        0
  7661  193-38-5       -2  108   54   0.420   0.350        0
  7662  193-42-348     -2  108   54   0.420   0.350        0
  7663  188-56-10       3  108   53   0.500  -0.350        0
  7664  188-61-61       3  108   53   0.500  -0.350        0
  7665  188-66-61       3  108   53   0.500  -0.350        0
  7666  187-56-10       3  108   54   0.500  -0.440        0
  7667  187-61-61       3  108   54   0.500  -0.440        0
  7668  187-66-62       3  108   54   0.500  -0.440        0
  7669  179-48-337      2  111   54  -0.480   0.250        0
  7670  14-1-365        2  111   58   0.250  -0.350        0
  7671  185-1-365       2  109   58   0.220   0.140        0
  7672  185-10-60       2  109   58   0.220   0.140        0
  7673  185-38-7        2  109   58   0.220   0.140        0
  7674  185-42-355      2  109   58   0.220   0.140        0
  7675  181-38-7       -2  110   58  -0.050  -0.060        0
  7676  181-48-335     -2  110   58  -0.050  -0.060        0
  7677  181-56-11      -2  110   58  -0.050  -0.060        0
  7678  181-61-60      -2  110   58  -0.050  -0.060        0
  7679  181-66-48      -2  110   58  -0.050  -0.060        0
  7680  181-71-34      -2  110   58  -0.050  -0.060        0
  7681  186-48-335      1  109   60  -0.010  -0.460        0
  7682  183-48-335      1  110   59  -0.320  -0.080        0
  7683  182-42-355     -2  110   59  -0.360  -0.110        0
  7684  182-48-335     -2  110   59  -0.360  -0.110        0
  7685  182-56-9       -2  110   59  -0.360  -0.110        0
  7686  182-61-60      -2  110   59  -0.360  -0.110        0
  7687  182-66-48      -2  110   59  -0.360  -0.110        0
  7688  182-71-34      -2  110   59  -0.360  -0.110        0
  7689  180-48-335      1  110   59   0.030   0.350        0
  7690  184-12-80       1  109   61   0.490  -0.280        0
  7691  184-17-60       1  109   61   0.490  -0.280        0
  7692  184-22-62       1  109   61   0.490  -0.280        0
  7693  184-27-6        1  109   61   0.490  -0.280        0
  7694  184-31-335      1  109   61   0.490  -0.280        0
  7695  184-37-32       1  109   61   0.490  -0.280        0
  7696  184-42-299      1  109   61   0.490  -0.280        0
  7697  184-48-337      1  109   61   0.490  -0.280        0
  7698  184-56-12       1  109   61   0.490  -0.280        0
  7699  184-66-55       1  109   61   0.490  -0.280        0
  7700  305-56-11       1  100   63   0.500   0.230        0
  7701  305-61-61       1  100   63   0.500   0.230        0
  7702  305-66-32       1  100   63   0.500   0.230        0
  7703  325-37-344      3  100   64  -0.420  -0.180        0
  7704  325-43-14       3  100   64  -0.420  -0.180        0
  7705  325-48-342      3  100   64  -0.420  -0.180        0
  7706  325-56-12       3  100   64  -0.420  -0.180        0
  7707  325-61-61       3  100   64  -0.420  -0.180        0
  7708  325-66-31       3  100   64  -0.420  -0.180        0
  7709  292-61-61       2  101   66   0.380   0.300        0
  7710  296-26-321      2  101   67   0.300  -0.440        0
  7711  296-31-335      2  101   67   0.300  -0.440        0
  7712  296-37-344      2  101   67   0.300  -0.440        0
  7713  296-43-14       2  101   67   0.300  -0.440        0
  7714  296-48-342      2  101   67   0.300  -0.440        0
  7715  296-56-11       2  101   67   0.300  -0.440        0
  7716  296-60-321      2  101   67   0.300  -0.440        0
  7717  296-65-300     -2  101   67   0.300  -0.440        0
  7718  297-17-4       -2  101   65   0.220   0.320        0
  7719  297-22-54      -2  101   65   0.220   0.320        0
  7720  297-27-11      -2  101   65   0.220   0.320        0
  7721  297-56-12       2  101   65   0.220   0.320        0
  7722  297-61-61       2  101   65   0.220   0.320        0
  7723  297-66-32       2  101   65   0.220   0.320        0
  7724  272-33-177      2  102   66   0.260   0.400        0
  7725  245-48-342      2  104   65   0.210  -0.330        0
  7726  245-56-12       2  104   65   0.210  -0.330        0
  7727  221-33-346     -2  106   63   0.430   0.130        0
  7728  222-48-343      2  106   63   0.470   0.070        0
  7729  222-56-9        2  106   63   0.470   0.070        0
  7730  222-61-60       2  106   63   0.470   0.070        0
  7731  222-66-54       2  106   63   0.470   0.070        0
  7732  222-71-34       2  106   63   0.470   0.070        0
  7733  223-48-343     -2  106   63   0.390   0.100        0
  7734  223-56-9       -2  106   63   0.390   0.100        0
  7735  223-61-60      -2  106   63   0.390   0.100        0
  7736  223-71-35      -2  106   63   0.390   0.100        0
  7737  219-71-365      2  107   64  -0.260  -0.280        0
  7738  102-43-8        3  121   50   0.080   0.490        0
  7739  102-48-344      3  121   50   0.080   0.490        0
  7740  92-71-40        1  122   51   0.150  -0.350        0
  7741  177-17-6        1  111   58  -0.360   0.330        0
  7742  177-38-7        1  111   58  -0.360   0.330        0
  7743  177-42-355      1  111   58  -0.360   0.330        0
  7744  177-48-335      1  111   58  -0.360   0.330        0
  7745  169-38-4       -3  111   58   0.210  -0.190        0
  7746  169-42-334     -3  111   58   0.210  -0.190        0
  7747  169-56-11      -3  111   58   0.210  -0.190        0
  7748  168-1-365      -2  111   58   0.440   0.430        0
  7749  170-38-7        3  111   58   0.400   0.270        0
  7750  170-42-355     -3  111   58   0.400   0.270        0
  7751  170-48-335     -3  111   58   0.400   0.270        0
  7752  170-56-9       -3  111   58   0.400   0.270        0
  7753  170-61-60      -3  111   58   0.400   0.270        0
  7754  170-66-48      -3  111   58   0.400   0.270        0
  7755  170-71-34       3  111   58   0.400   0.270        0
  7756  176-1-280      -2  111   57  -0.250   0.090        0
  7757  176-6-340      -2  111   57  -0.250   0.090        0
  7758  176-11-333     -2  111   57  -0.250   0.090        0
  7759  176-16-332     -2  111   57  -0.250   0.090        0
  7760  176-38-7       -2  111   57  -0.250   0.090        0
  7761  172-12-80       2  111   54   0.060  -0.080        0
  7762  172-17-60       2  111   54   0.060  -0.080        0
  7763  172-22-62       2  111   54   0.060  -0.080        0
  7764  172-27-6        2  111   54   0.060  -0.080        0
  7765  172-31-344      2  111   54   0.060  -0.080        0
  7766  172-36-335      2  111   54   0.060  -0.080        0
  7767  172-48-335      2  111   54   0.060  -0.080        0
  7768  172-56-11       2  111   54   0.060  -0.080        0
  7769  172-61-59       2  111   54   0.060  -0.080        0
  7770  171-43-47       2  111   54   0.060  -0.080        0
  7771  171-48-335      2  111   54   0.060  -0.080        0
  7772  171-56-11       2  111   54   0.060  -0.080        0
  7773  171-60-322      2  111   54   0.060  -0.080        0
  7774  171-65-298      2  111   54   0.060  -0.080        0
  7775  171-71-13       2  111   54   0.060  -0.080        0
  7776  164-33-152     -2  112   54   0.320  -0.340        0
  7777  167-48-335      2  112   54  -0.370  -0.140        0
  7778  167-56-11       2  112   54  -0.370  -0.140        0
  7779  166-61-56       2  112   54  -0.330   0.120        0
  7780  166-66-53       2  112   54  -0.330   0.120        0
  7781  166-71-35       2  112   54  -0.330   0.120        0
  7782  178-48-336      2  111   52  -0.400  -0.300        0
  7783  178-56-11       2  111   52  -0.400  -0.300        0
  7784  174-48-336      3  111   52   0.020   0.060        0
  7785  161-48-336      3  113   52  -0.220  -0.400        0
  7786  161-56-11       3  113   52  -0.220  -0.400        0
  7787  161-61-56       3  113   52  -0.220  -0.400        0
  7788  161-66-54       3  113   52  -0.220  -0.400        0
  7789  161-71-41       3  113   52  -0.220  -0.400        0
  7790  153-48-335      2  114   53   0.200  -0.450        0
  7791  163-48-336      2  113   53  -0.490  -0.030        0
  7792  163-56-11       2  113   53  -0.490  -0.030        0
  7793  163-61-59       2  113   53  -0.490  -0.030        0
  7794  163-66-54       2  113   53  -0.490  -0.030        0
  7795  163-71-41       2  113   53  -0.490  -0.030        0
  7796  156-48-336      2  114   53  -0.450  -0.060        0
  7797  156-56-11       2  114   53  -0.450  -0.060        0
  7798  157-1-358       1  113   56   0.320  -0.350        0
  7799  157-22-54       1  113   56   0.320  -0.350        0
  7800  157-27-11       1  113   56   0.320  -0.350        0
  7801  157-31-348      1  113   56   0.320  -0.350        0
  7802  157-37-22       1  113   56   0.320  -0.350        0
  7803  157-43-47       1  113   56   0.320  -0.350        0
  7804  157-48-335      1  113   56   0.320  -0.350        0
  7805  157-56-9        1  113   56   0.320  -0.350        0
  7806  157-60-322      1  113   56   0.320  -0.350        0
  7807  157-65-298      1  113   56   0.320  -0.350        0
  7808  157-71-365      1  113   56   0.320  -0.350        0
  7809  154-42-341      1  114   56  -0.030   0.110        0
  7810  159-38-4       -3  113   57  -0.030  -0.300        0
  7811  159-56-11      -3  113   57  -0.030  -0.300        0
  7812  147-38-4       -3  115   56  -0.270  -0.450        0
  7813  147-42-334     -3  115   56  -0.270  -0.450        0
  7814  147-56-11      -3  115   56  -0.270  -0.450        0
  7815  149-1-280       1  115   55   0.040   0.490        0
  7816  150-48-335      1  115   54   0.040   0.080        0
  7817  150-56-9        1  115   54   0.040   0.080        0
  7818  137-48-335      1  116   54   0.340  -0.110        0
  7819  137-56-9        1  116   54   0.340  -0.110        0
  7820  137-61-56       1  116   54   0.340  -0.110        0
  7821  137-66-53       1  116   54   0.340  -0.110        0
  7822  136-38-4       -2  116   55   0.420  -0.460        0
  7823  136-42-341     -2  116   55   0.420  -0.460        0
  7824  136-56-11      -2  116   55   0.420  -0.460        0
  7825  152-48-336      2  114   53   0.430  -0.420        0
  7826  129-17-5        1  118   54  -0.320  -0.150        0
  7827  129-27-11       1  118   54  -0.320  -0.150        0
  7828  123-42-348     -2  118   54   0.140  -0.340        0
  7829  128-42-348      1  118   54  -0.400  -0.010        0
  7830  128-56-11       1  118   54  -0.400  -0.010        0
  7831  133-12-362      2  116   56   0.500  -0.390        0
  7832  133-17-61       2  116   56   0.500  -0.390        0
  7833  133-27-6        2  116   56   0.500  -0.390        0
  7834  133-31-335      2  116   56   0.500  -0.390        0
  7835  133-38-4        2  116   56   0.500  -0.390        0
  7836  133-42-341      2  116   56   0.500  -0.390        0
  7837  133-48-335      2  116   56   0.500  -0.390        0
  7838  133-56-9        2  116   56   0.500  -0.390        0
  7839  133-71-365      2  116   56   0.500  -0.390        0
  7840  127-1-365       1  118   55  -0.210   0.360        0
  7841  127-17-1        1  118   55  -0.210   0.360        0
  7842  130-42-341     -2  117   55   0.490   0.130        0
  7843  130-48-335     -2  117   55   0.490   0.130        0
  7844  130-56-9       -2  117   55   0.490   0.130        0
  7845  126-27-11       1  118   55  -0.170  -0.100        0
  7846  135-48-336      2  116   58   0.490  -0.160        0
  7847  135-56-9        2  116   58   0.490  -0.160        0
  7848  122-48-336      2  119   57  -0.440   0.390        0
  7849  120-12-310      2  119   53   0.270  -0.170        0
  7850  120-17-5        2  119   53   0.270  -0.170        0
  7851  120-27-6        2  119   53   0.270  -0.170        0
  7852  120-31-335      2  119   53   0.270  -0.170        0
  7853  120-37-32       2  119   53   0.270  -0.170        0
  7854  120-42-341      2  119   53   0.270  -0.170        0
  7855  120-48-336      2  119   53   0.270  -0.170        0
  7856  120-56-10       2  119   53   0.270  -0.170        0
  7857  120-61-59       2  119   53   0.270  -0.170        0
  7858  120-65-292      2  119   53   0.270  -0.170        0
  7859  120-71-365      2  119   53   0.270  -0.170        0
  7860  118-38-4       -2  120   53  -0.370   0.070        0
  7861  118-42-341     -2  120   53  -0.370   0.070        0
  7862  118-48-349     -2  120   53  -0.370   0.070        0
  7863  118-56-10      -2  120   53  -0.370   0.070        0
  7864  107-27-69       2  120   53   0.400  -0.130        0
  7865  114-48-336     -3  120   54   0.010   0.310        0
  7866  114-56-10      -3  120   54   0.010   0.310        0
  7867  112-43-8        1  120   52   0.050   0.190        0
  7868  112-48-335      1  120   52   0.050   0.190        0
  7869  112-56-9        1  120   52   0.050   0.190        0
  7870  112-61-52       1  120   52   0.050   0.190        0
  7871  112-66-45       1  120   52   0.050   0.190        0
  7872  112-71-13       1  120   52   0.050   0.190        0
  7873  104-60-299      1  121   52  -0.110   0.050        0
  7874  104-65-292      1  121   52  -0.110   0.050        0
  7875  100-22-61       2  121   52   0.310   0.320        0
  7876  101-61-53       2  121   51   0.160  -0.190        0
  7877  97-22-54        1  121   51   0.430  -0.190        0
  7878  97-27-10        1  121   51   0.430  -0.190        0
  7879  98-43-8         1  121   51   0.390   0.430        0
  7880  98-48-348       1  121   51   0.390   0.430        0
  7881  98-56-10        1  121   51   0.390   0.430        0
  7882  98-61-52        1  121   51   0.390   0.430        0
  7883  98-66-45        1  121   51   0.390   0.430        0
  7884  105-43-69       2  121   54  -0.300   0.020        0
  7885  105-48-348      2  121   54  -0.300   0.020        0
  7886  105-56-10       2  121   54  -0.300   0.020        0
  7887  105-61-55       2  121   54  -0.300   0.020        0
  7888  105-66-45       2  121   54  -0.300   0.020        0
  7889  99-5-1          1  121   54   0.310  -0.110        0
  7890  106-56-10       2  121   57  -0.410  -0.270        0
  7891  106-61-59       2  121   57  -0.410  -0.270        0
  7892  106-66-45       2  121   57  -0.410  -0.270        0
  7893  106-71-40       2  121   57  -0.410  -0.270        0
  7894  95-71-40        3  122   58  -0.340  -0.480        0
  7895  3393-25-338     2    3   12  -0.200  -0.450        0
  7896  3312-25-338     2    9   13  -0.340  -0.460        0
  7897  3288-25-341     2   11   12  -0.080   0.390        0
  7898  3282-25-341     2   11   14   0.250  -0.480        0
  7899  3259-25-341    -2   14   15   0.410  -0.150        0
  7900  3222-25-229     1   16   24  -0.190   0.120        0
  7901  3213-25-337     2   16   20   0.420   0.420        0
  7902  3199-25-339    -2   17   26   0.350   0.320        0
  7903  3175-25-339     2   18   24   0.460   0.500        0
  7904  3170-25-342     2   19   22  -0.090   0.450        0
  7905  3200-25-336    -2   18   36  -0.090   0.180        0
  7906  3154-25-336     2   20   32   0.120  -0.340        0
  7907  3138-25-336     2   20   32   0.390   0.470        0
  7908  3046-25-344     2   25   31  -0.370  -0.450        0
  7909  3036-25-344     2   25   31   0.170  -0.450        0
  7910  3038-25-339    -3   25   35   0.140  -0.430        0
  7911  2684-25-3       3   37   15  -0.170   0.320        0
  7912  2919-25-351     2   30   39  -0.340  -0.310        0
  7913  2719-25-113     2   36   59  -0.090  -0.020        0
  7914  1933-25-180    -2   50   61   0.220  -0.390        0
  7915  1387-25-60     -2   60   61  -0.480  -0.030        0
  7916  1427-25-27      1   58   59   0.410  -0.180        0
  7917  1661-25-60      1   53   73   0.010  -0.030        0
  7918  1390-25-365    -2   60   65  -0.440  -0.360        0
  7919  1904-25-317     2   51   82  -0.460   0.010        0
  7920  1379-25-91      2   60   85  -0.130  -0.310        0
  7921  1796-25-321     3   52   90  -0.400  -0.190        0
  7922  1753-25-321     2   52   88  -0.170   0.250        0
  7923  1705-25-328     2   52   92   0.320   0.320        0
  7924  1064-25-125    -2   67   57   0.140  -0.040        0
  7925  831-25-335     -2   74   59  -0.360  -0.310        0
  7926  1066-25-335     2   67   90  -0.100   0.210        0
  7927  723-25-363      2   78   23   0.220  -0.320        0
  7928  568-25-307     -2   85   64   0.040   0.360        0
  7929  544-25-309      1   86   66  -0.120  -0.130        0
  7930  780-25-329      1   75   68   0.400   0.330        0
  7931  526-25-307      1   87   66  -0.390  -0.200        0
  7932  370-25-308     -2   96   65  -0.020   0.090        0
  7933  265-25-7       -2  103   62   0.020   0.150        0
  7934  266-25-43       2  103   58   0.030   0.070        0
  7935  232-25-314     -3  105   58   0.320   0.040        0
  7936  100-25-316      2  121   52   0.310   0.320        0
  7937  3205-26-8       2   17   18  -0.170   0.310        0
  7938  3174-26-7       2   18   22   0.370   0.330        0
  7939  3163-26-13      2   20   24  -0.360   0.110        0
  7940  3100-26-12     -2   22   17   0.490   0.480        0
  7941  3097-26-7       2   22   22   0.470   0.410        0
  7942  3096-26-12      2   22   24   0.360   0.360        0
  7943  3053-26-11      2   24   21   0.450   0.010        0
  7944  3065-26-12     -2   24   17  -0.210   0.440        0
  7945  3033-26-11     -2   25   19   0.250   0.420        0
  7946  2989-26-12      2   26   22   0.410  -0.480        0
  7947  3083-26-152    -2   23   34   0.150  -0.270        0
  7948  3040-26-13      2   25   28   0.050   0.470        0
  7949  2997-26-123     2   26   56   0.230  -0.360        0
  7950  3016-26-123     2   26   58  -0.270  -0.350        0
  7951  2953-26-14      2   28   25   0.330  -0.430        0
  7952  2963-26-14      2   28   22  -0.140   0.270        0
  7953  2968-26-13     -2   28   20  -0.330   0.290        0
  7954  2906-26-13     -2   30   20   0.420   0.380        0
  7955  2905-26-13     -2   30   25   0.430  -0.080        0
  7956  2874-26-14      2   31   23   0.420  -0.390        0
  7957  2780-26-13      3   34   18   0.470   0.410        0
  7958  2779-26-13     -2   34   20   0.480   0.040        0
  7959  2787-26-14      2   34   24   0.410   0.000        0
  7960  2790-26-14     -2   34   25   0.450   0.300        0
  7961  2772-26-13      3   35   17  -0.420  -0.340        0
  7962  2639-26-13     -2   38   20   0.380   0.350        0
  7963  2974-26-15      2   27   38   0.320  -0.410        0
  7964  2937-26-14     -2   29   37   0.120   0.130        0
  7965  2885-26-14      2   31   34  -0.120   0.110        0
  7966  2867-26-14      2   32   33  -0.400  -0.390        0
  7967  2837-26-14      2   32   31   0.210  -0.370        0
  7968  2748-26-15      2   35   31   0.120  -0.470        0
  7969  2694-26-15      2   36   31   0.460  -0.180        0
  7970  2933-26-15      2   29   28   0.180  -0.410        0
  7971  2851-26-14      2   32   28   0.010  -0.450        0
  7972  2711-26-15      2   36   29   0.150  -0.460        0
  7973  2928-26-18      2   29   40   0.320  -0.470        0
  7974  2811-26-14      2   32   39   0.150  -0.380        0
  7975  2808-26-18      2   33   39   0.490  -0.250        0
  7976  2766-26-47      2   35   48  -0.090  -0.190        0
  7977  2789-26-18      2   34   39   0.250   0.170        0
  7978  2696-26-18      2   36   44   0.360   0.430        0
  7979  2977-26-123    -2   27   60   0.460  -0.140        0
  7980  2914-26-120     2   30   52  -0.020   0.490        0
  7981  2930-26-123     2   30   61  -0.440  -0.430        0
  7982  2898-26-120     2   31   52  -0.480   0.190        0
  7983  2841-26-120     2   32   57   0.310  -0.290        0
  7984  2774-26-120     2   35   58  -0.270   0.010        0
  7985  2762-26-26      2   35   56  -0.270   0.450        0
  7986  2733-26-1       2   36   52  -0.430   0.190        0
  7987  2742-26-26      2   36   54   0.370   0.500        0
  7988  2670-26-18      2   37   54   0.400   0.500        0
  7989  2660-26-120     2   38   59   0.020  -0.210        0
  7990  2931-26-22      2   29   63   0.210   0.430        0
  7991  2595-26-12     -2   40   19   0.440   0.310        0
  7992  2596-26-1      -2   40   18   0.400   0.360        0
  7993  2589-26-11      3   40   15   0.390   0.310        0
  7994  2588-26-1       3   40   16   0.470   0.120        0
  7995  2564-26-12      3   41   18   0.090   0.390        0
  7996  2529-26-12     -2   42   20   0.440   0.370        0
  7997  2449-26-11      2   44   25   0.360   0.310        0
  7998  2492-26-13     -2   43   22   0.400   0.420        0
  7999  2452-26-12     -2   44   20   0.430   0.330        0
  8000  2303-26-1      -2   46   17   0.370  -0.050        0
  8001  2296-26-12     -2   46   21   0.420   0.370        0
  8002  2301-26-14     -2   46   23   0.460   0.350        0
  8003  2300-26-11     -2   46   25   0.280   0.370        0
  8004  2220-26-11     -2   47   26   0.390  -0.250        0
  8005  2089-26-1      -2   48   23   0.410  -0.170        0
  8006  2088-26-12     -2   48   24   0.420  -0.200        0
  8007  2448-26-11      2   44   28   0.410   0.170        0
  8008  2099-26-1      -2   48   27   0.390  -0.470        0
  8009  1922-26-1      -2   50   27   0.340   0.340        0
  8010  1983-26-11      2   50   30  -0.310   0.330        0
  8011  1930-26-14      3   50   33   0.280   0.290        0
  8012  2649-26-27     -2   38   48   0.280   0.360        0
  8013  2505-26-32      2   43   54   0.100  -0.410        0
  8014  2464-26-29      1   44   53   0.180   0.000        0
  8015  2388-26-32      1   46   56  -0.480   0.190        0
  8016  2412-26-20     -2   45   62   0.060  -0.090        0
  8017  2289-26-29      2   47   56  -0.490   0.150        0
  8018  2236-26-19      2   47   56   0.200   0.380        0
  8019  2183-26-29      2   48   54  -0.270   0.460        0
  8020  2215-26-104     2   47   74   0.420  -0.420        0
  8021  2162-26-102     2   48   68  -0.150   0.180        0
  8022  2130-26-69      1   48   63   0.080  -0.340        0
  8023  1990-26-67      2   50   63  -0.430   0.180        0
  8024  2103-26-67     -2   48   65   0.350   0.000        0
  8025  2055-26-102     1   49   65  -0.200   0.420        0
  8026  1997-26-183     1   50   69  -0.470   0.420        0
  8027  2339-26-104     2   46   75   0.080   0.460        0
  8028  2100-26-117     2   48   82   0.090   0.160        0
  8029  2010-26-75      1   49   75   0.370  -0.380        0
  8030  1428-26-1       3   58   24   0.140  -0.230        0
  8031  1383-26-8       3   60   25  -0.370   0.300        0
  8032  1819-26-1      -2   52   31  -0.470   0.240        0
  8033  1748-26-11     -2   52   31  -0.010   0.400        0
  8034  1702-26-11     -2   52   27   0.370  -0.120        0
  8035  1710-26-1      -2   52   27   0.410   0.470        0
  8036  1663-26-1      -2   53   27  -0.210   0.370        0
  8037  1612-26-11      2   54   32  -0.170  -0.110        0
  8038  1407-26-11     -2   59   34  -0.080   0.380        0
  8039  1364-26-11      2   60   31   0.410   0.480        0
  8040  1266-26-8      -2   62   31   0.360  -0.300        0
  8041  1336-26-11     -2   61   34  -0.090   0.380        0
  8042  1337-26-11     -2   61   32  -0.090   0.490        0
  8043  1264-26-1      -2   62   33   0.250  -0.420        0
  8044  1849-26-40     -2   51   62   0.290   0.170        0
  8045  1832-26-40      3   51   57   0.450   0.190        0
  8046  1690-26-33      2   53   59  -0.480   0.370        0
  8047  1691-26-1       2   53   58  -0.480   0.490        0
  8048  1417-26-60      2   59   62  -0.440   0.200        0
  8049  1386-26-34     -3   59   62   0.290   0.370        0
  8050  1329-26-35      2   61   58   0.170   0.170        0
  8051  1278-26-33      2   62   62   0.120   0.070        0
  8052  1879-26-69     -2   51   70  -0.020   0.200        0
  8053  1811-26-68     -2   52   69  -0.400  -0.390        0
  8054  1837-26-60      1   51   70   0.400  -0.120        0
  8055  1907-26-68      2   50   68   0.450   0.310        0
  8056  1888-26-68      2   51   66  -0.240   0.070        0
  8057  1779-26-67      1   52   66  -0.250  -0.250        0
  8058  1619-26-67     -2   54   65  -0.300  -0.490        0
  8059  1723-26-60      2   52   66   0.320  -0.480        0
  8060  1694-26-68     -2   53   68  -0.490   0.220        0
  8061  1658-26-67     -2   53   67   0.090  -0.150        0
  8062  1655-26-69     -2   53   70   0.090   0.040        0
  8063  1614-26-69      1   54   70  -0.220  -0.280        0
  8064  1596-26-69      1   54   71  -0.340  -0.210        0
  8065  1630-26-69      1   54   72  -0.490   0.060        0
  8066  1552-26-74      1   55   69  -0.080   0.070        0
  8067  1467-26-76      2   57   63   0.110   0.410        0
  8068  1470-26-74      2   57   66  -0.120  -0.020        0
  8069  1455-26-81      1   57   66   0.450  -0.020        0
  8070  1443-26-81      2   58   66  -0.430   0.010        0
  8071  1465-26-74      1   57   67   0.180  -0.210        0
  8072  1440-26-74     -2   57   68   0.260  -0.430        0
  8073  1474-26-75      1   57   70  -0.200   0.140        0
  8074  1453-26-71      1   57   69   0.370  -0.090        0
  8075  1488-26-70      2   57   74  -0.440   0.080        0
  8076  1502-26-71     -2   56   74   0.260  -0.350        0
  8077  1477-26-60      2   57   73  -0.240   0.100        0
  8078  1458-26-153     2   57   74   0.250  -0.410        0
  8079  1429-26-71     -2   58   74   0.100  -0.440        0
  8080  1397-26-71     -2   59   68   0.290   0.090        0
  8081  1416-26-76     -2   59   63  -0.320  -0.110        0
  8082  1312-26-88      1   61   66   0.320   0.440        0
  8083  1359-26-82     -2   60   73   0.200  -0.410        0
  8084  1333-26-82     -2   61   73  -0.230  -0.450        0
  8085  1295-26-84      1   62   73  -0.150  -0.020        0
  8086  1892-26-193    -2   51   83  -0.340   0.110        0
  8087  1940-26-109    -2   50   80   0.280  -0.400        0
  8088  1659-26-71     -2   53   76   0.120   0.090        0
  8089  1671-26-60     -2   53   75  -0.070   0.280        0
  8090  1627-26-70      2   54   76  -0.460  -0.100        0
  8091  1677-26-83      2   53   81  -0.080  -0.450        0
  8092  1602-26-83      2   54   80  -0.010  -0.270        0
  8093  1604-26-83      2   54   81  -0.010  -0.320        0
  8094  1669-26-109     2   53   85  -0.200  -0.230        0
  8095  1622-26-109     2   54   85  -0.400  -0.090        0
  8096  1553-26-88      2   55   84  -0.060  -0.230        0
  8097  1563-26-88      2   55   83  -0.290  -0.170        0
  8098  1586-26-84      2   54   81   0.490   0.170        0
  8099  1507-26-75      2   56   77   0.100   0.070        0
  8100  1495-26-60     -2   56   77   0.410   0.170        0
  8101  1484-26-75      2   57   77  -0.320  -0.250        0
  8102  1489-26-88      2   57   82  -0.410  -0.370        0
  8103  1464-26-88      2   57   83   0.010  -0.170        0
  8104  1414-26-95      2   59   85  -0.470   0.210        0
  8105  1395-26-88      2   59   79   0.390   0.000        0
  8106  1377-26-83      2   60   79   0.080  -0.260        0
  8107  1375-26-88      2   60   81   0.150  -0.470        0
  8108  1396-26-70      2   59   77   0.280  -0.350        0
  8109  1415-26-84      1   59   76  -0.450  -0.160        0
  8110  1300-26-213     2   62   83  -0.400   0.490        0
  8111  1276-26-95      2   62   84   0.130   0.470        0
  8112  1354-26-95      2   61   87  -0.480  -0.260        0
  8113  1358-26-95      3   61   87  -0.290  -0.350        0
  8114  846-26-13       3   73   19  -0.300  -0.090        0
  8115  833-26-13      -2   73   21   0.470   0.130        0
  8116  827-26-13      -2   74   22  -0.220   0.270        0
  8117  845-26-13       2   73   24  -0.360   0.190        0
  8118  1105-26-118     2   66   36   0.240   0.350        0
  8119  1120-26-13      2   66   38  -0.220  -0.250        0
  8120  1088-26-91      3   67   33  -0.460  -0.360        0
  8121  809-26-13       3   74   30   0.140  -0.080        0
  8122  1235-26-36     -2   63   61  -0.230  -0.290        0
  8123  1239-26-33     -3   63   60  -0.270  -0.140        0
  8124  1227-26-33     -2   63   59   0.420   0.470        0
  8125  1219-26-36     -3   63   60   0.390   0.190        0
  8126  1168-26-35      2   65   58  -0.240  -0.030        0
  8127  1140-26-35     -3   65   58   0.410  -0.220        0
  8128  1160-26-36     -2   65   60  -0.120   0.190        0
  8129  1121-26-36     -3   66   60  -0.240   0.120        0
  8130  1080-26-36      1   67   62  -0.320  -0.350        0
  8131  1048-26-36     -3   67   61   0.360  -0.030        0
  8132  1075-26-36     -3   67   60  -0.170  -0.010        0
  8133  1016-26-36      3   68   59  -0.020  -0.340        0
  8134  1011-26-36     -3   68   59   0.090  -0.020        0
  8135  1083-26-35      2   67   58  -0.360  -0.320        0
  8136  997-26-244      2   68   57   0.210  -0.170        0
  8137  910-26-166     -2   71   57  -0.500   0.190        0
  8138  1212-26-64      3   64   71  -0.430  -0.430        0
  8139  1131-26-349     2   66   63  -0.400  -0.140        0
  8140  1188-26-60      2   64   69   0.300  -0.250        0
  8141  1076-26-341    -2   67   72  -0.250  -0.350        0
  8142  1000-26-18      1   68   71   0.160  -0.460        0
  8143  1095-26-18      1   66   65   0.370   0.010        0
  8144  1035-26-61      1   68   65  -0.450  -0.190        0
  8145  1037-26-60      1   68   63  -0.480   0.020        0
  8146  878-26-60      -2   72   63  -0.310  -0.400        0
  8147  1250-26-84     -2   62   75   0.260   0.090        0
  8148  1251-26-84     -2   62   75   0.380  -0.300        0
  8149  1195-26-81     -2   64   76  -0.170   0.110        0
  8150  1110-26-62      1   66   76  -0.060   0.010        0
  8151  1044-26-82      2   67   82   0.270  -0.350        0
  8152  1017-26-62      2   69   76   0.110   0.110        0
  8153  973-26-95       2   69   85  -0.400   0.040        0
  8154  870-26-95       3   72   86  -0.190  -0.340        0
  8155  3417-26-95     -2   74   85  -0.010   0.310        0
  8156  1246-26-305     3   63   88  -0.490  -0.470        0
  8157  1593-26-18      2   67   89  -0.400  -0.090        0
  8158  757-26-141     -2   76   21   0.230  -0.240        0
  8159  758-26-1       -2   76   19   0.220  -0.260        0
  8160  722-26-64       2   78   17   0.200  -0.290        0
  8161  737-26-1        2   77   18   0.210  -0.240        0
  8162  656-26-1        2   82   15  -0.130   0.040        0
  8163  602-26-1        2   84   16   0.060   0.400        0
  8164  598-26-1        3   85   22  -0.430  -0.420        0
  8165  720-26-1        2   79   29  -0.460  -0.420        0
  8166  674-26-43      -2   81   64   0.410  -0.220        0
  8167  673-26-49      -2   81   67   0.440   0.490        0
  8168  810-26-43       2   74   63   0.250  -0.200        0
  8169  785-26-65       2   75   80   0.460   0.260        0
  8170  681-26-96       2   81   81  -0.070  -0.370        0
  8171  608-26-64      -2   84   82   0.020   0.400        0
  8172  559-26-60       2   85   85   0.320   0.460        0
  8173  731-26-98       3   78   92  -0.160  -0.130        0
  8174  683-26-91       3   81   91  -0.250   0.160        0
  8175  496-26-56       2   88   61   0.370   0.100        0
  8176  408-26-46       3   94   56  -0.160   0.440        0
  8177  391-26-72      -2   95   59   0.070  -0.370        0
  8178  451-26-85       3   91   85  -0.330   0.270        0
  8179  477-26-63       1   89   75   0.350   0.200        0
  8180  302-26-47       3  101   58  -0.160   0.040        0
  8181  295-26-47       3  101   58   0.380  -0.350        0
  8182  281-26-47       3  102   58   0.150  -0.160        0
  8183  270-26-41       3  103   58  -0.400  -0.350        0
  8184  278-26-11      -2  102   60   0.180   0.060        0
  8185  250-26-11      -2  104   61  -0.320  -0.020        0
  8186  3333-27-99      2    7   30   0.410   0.170        0
  8187  3176-27-347     2   18   20   0.330   0.350        0
  8188  3055-27-126     3   24   61   0.320  -0.330        0
  8189  2747-27-253     2   35   49   0.140   0.070        0
  8190  995-27-236     -2   68   34   0.340   0.360        0
  8191  778-27-348      2   75   77   0.270  -0.450        0
  8192  718-27-151     -2   79   84  -0.450  -0.470        0
  8193  3239-30-335     2   15   68   0.360   0.320        0
  8194  3181-30-185    -2   18   68   0.150  -0.170        0
  8195  3211-30-274     2   16   70   0.470   0.330        0
  8196  3189-30-181    -2   18   69  -0.120  -0.100        0
  8197  3198-30-274     2   17   70   0.420   0.100        0
  8198  3192-30-274     2   18   70  -0.380   0.170        0
  8199  3124-30-213     2   21   69   0.060   0.230        0
  8200  2832-30-108    -2   33   45  -0.420  -0.280        0
  8201  2673-30-244    -2   37   51   0.250  -0.470        0
  8202  2876-30-99     -2   31   56   0.320  -0.100        0
  8203  2774-30-91      2   35   58  -0.270   0.010        0
  8204  2733-30-27      2   36   52  -0.430   0.190        0
  8205  2603-30-29     -2   40   50   0.160   0.010        0
  8206  2652-30-27     -2   38   53   0.240  -0.480        0
  8207  2576-30-30      1   41   55  -0.270  -0.440        0
  8208  2542-30-30     -2   42   56   0.000  -0.460        0
  8209  2505-30-29      2   43   54   0.100  -0.410        0
  8210  2355-30-1      -2   46   51   0.010   0.340        0
  8211  2464-30-29      1   44   53   0.180   0.000        0
  8212  2357-30-30      2   46   54   0.090   0.100        0
  8213  2373-30-30     -3   46   55  -0.450   0.050        0
  8214  2446-30-30     -2   45   57  -0.360   0.450        0
  8215  2445-30-121     1   45   60  -0.480  -0.370        0
  8216  2237-30-34      2   47   60   0.160  -0.470        0
  8217  2137-30-35     -2   48   58   0.040  -0.450        0
  8218  2109-30-30      2   48   56   0.230  -0.240        0
  8219  2038-30-1       2   49   58  -0.350   0.360        0
  8220  2059-30-35     -2   49   59  -0.270   0.080        0
  8221  2227-30-273    -3   47   65   0.310  -0.300        0
  8222  2056-30-18      1   49   64  -0.190  -0.080        0
  8223  2019-30-111    -2   49   64   0.300   0.020        0
  8224  1998-30-244     1   50   68  -0.470   0.150        0
  8225  2086-30-14      2   48   70   0.460   0.360        0
  8226  2069-30-244    -2   49   72  -0.350  -0.180        0
  8227  2081-30-105     2   48   71   0.460   0.340        0
  8228  2246-30-335     2   47   76   0.000   0.210        0
  8229  2001-30-305     2   49   83   0.470   0.370        0
  8230  1617-30-121     1   54   61  -0.220   0.030        0
  8231  1391-30-43     -3   59   62   0.250   0.400        0
  8232  1427-30-11      1   58   59   0.410  -0.180        0
  8233  1400-30-42      2   59   60   0.140  -0.400        0
  8234  1619-30-57     -2   54   65  -0.300  -0.490        0
  8235  1693-30-51      1   52   72   0.470   0.090        0
  8236  1500-30-56     -2   56   65   0.270   0.130        0
  8237  1312-30-349     1   61   66   0.320   0.440        0
  8238  1874-30-1       2   51   86  -0.010   0.200        0
  8239  1857-30-157     1   51   83   0.150  -0.340        0
  8240  1843-30-213    -2   51   82   0.350  -0.250        0
  8241  1846-30-43     -2   52   78  -0.380   0.430        0
  8242  1676-30-79      2   53   82  -0.240   0.140        0
  8243  1574-30-246     2   55   85  -0.410  -0.030        0
  8244  1368-30-60     -2   60   77   0.310  -0.350        0
  8245  1366-30-43      2   60   79   0.350  -0.260        0
  8246  1348-30-43      2   61   81  -0.350   0.110        0
  8247  1320-30-335     2   61   84   0.140   0.430        0
  8248  1276-30-121     2   62   84   0.130   0.470        0
  8249  1751-30-305     2   52   91  -0.140  -0.410        0
  8250  1752-30-305     2   52   87  -0.130   0.080        0
  8251  1749-30-305     2   52   87  -0.090  -0.310        0
  8252  1754-30-130     1   52   88  -0.170  -0.370        0
  8253  812-30-6       -2   74   19   0.160   0.430        0
  8254  1235-30-43     -2   63   61  -0.230  -0.290        0
  8255  1197-30-43      1   64   67   0.070   0.090        0
  8256  1187-30-182    -3   64   70   0.300  -0.050        0
  8257  1194-30-1       2   64   75   0.180  -0.330        0
  8258  529-30-351     -2   86   63   0.500  -0.490        0
  8259  686-30-127     -3   81   63  -0.400  -0.140        0
  8260  488-30-44       3   89   60  -0.480   0.390        0
  8261  485-30-351     -2   89   58  -0.320   0.400        0
  8262  476-30-60       3   89   62   0.400  -0.010        0
  8263  408-30-349      3   94   56  -0.160   0.440        0
  8264  402-30-213      3   94   58   0.380  -0.030        0
  8265  366-30-42       2   96   68   0.170   0.420        0
  8266  301-30-342      3  101   58  -0.120   0.460        0
  8267  270-30-342      3  103   58  -0.400  -0.350        0
  8268  3376-31-2       2    7   14  -0.080  -0.350        0
  8269  3351-31-101     2    6   20  -0.490  -0.230        0
  8270  3272-31-104     3   12   67  -0.010   0.340        0
  8271  3145-31-193    -2   20   24   0.290   0.300        0
  8272  3161-31-244     2   20   28  -0.190   0.450        0
  8273  3038-31-1      -3   25   35   0.140  -0.430        0
  8274  3243-31-1       2   15   68   0.130   0.320        0
  8275  3256-31-104    -2   15   67  -0.440  -0.300        0
  8276  3208-31-273    -2   17   67  -0.260  -0.460        0
  8277  3153-31-348    -2   20   69   0.140  -0.390        0
  8278  3164-31-283    -2   20   70  -0.430  -0.450        0
  8279  3093-31-104     2   23   68  -0.290  -0.200        0
  8280  2787-31-57      2   34   24   0.410   0.000        0
  8281  2734-31-1      -2   36   18  -0.490   0.480        0
  8282  2823-31-196     2   32   29  -0.330   0.270        0
  8283  2927-31-29     -3   29   42   0.090  -0.390        0
  8284  2743-31-220     2   35   50   0.180   0.180        0
  8285  2756-31-252    -2   35   48  -0.090  -0.230        0
  8286  2699-31-1       2   36   50   0.290  -0.310        0
  8287  2687-31-266    -2   37   49  -0.130  -0.090        0
  8288  2615-31-1       2   40   32  -0.360   0.240        0
  8289  2650-31-60      2   38   47   0.200   0.120        0
  8290  2558-31-121    -2   41   50   0.300  -0.440        0
  8291  2475-31-120    -2   44   55  -0.130   0.050        0
  8292  2460-31-120    -2   44   55   0.250   0.340        0
  8293  2427-31-120    -2   45   58  -0.360   0.040        0
  8294  2326-31-121    -3   46   62   0.240  -0.260        0
  8295  2212-31-121    -2   48   60  -0.420  -0.470        0
  8296  1991-31-36     -2   50   56  -0.390   0.310        0
  8297  1958-31-36     -2   50   57  -0.010   0.100        0
  8298  2057-31-121     2   49   60  -0.160   0.180        0
  8299  1951-31-36     -2   50   62   0.070   0.140        0
  8300  2014-31-121     1   49   66   0.340   0.000        0
  8301  1974-31-120     1   50   66  -0.160  -0.030        0
  8302  2102-31-119    -2   48   70   0.340  -0.260        0
  8303  2054-31-91     -2   49   70  -0.200  -0.350        0
  8304  2339-31-78      2   46   75   0.080   0.460        0
  8305  2330-31-196     2   46   82   0.180  -0.460        0
  8306  2100-31-78      2   48   82   0.090   0.160        0
  8307  2043-31-211    -2   49   79  -0.020   0.370        0
  8308  1849-31-1      -2   51   62   0.290   0.170        0
  8309  1471-31-113    -2   57   59  -0.270   0.440        0
  8310  1461-31-40     -2   57   62   0.260   0.500        0
  8311  1321-31-40      2   61   60   0.170   0.350        0
  8312  1306-31-113    -2   61   60   0.400  -0.400        0
  8313  1307-31-113     2   61   59   0.360   0.210        0
  8314  1305-31-121     2   62   61  -0.490   0.260        0
  8315  1886-31-119     1   51   71  -0.210   0.110        0
  8316  1879-31-119    -2   51   70  -0.020   0.200        0
  8317  1779-31-119     1   52   66  -0.250  -0.250        0
  8318  1724-31-118     2   52   65   0.360   0.130        0
  8319  1694-31-119    -2   53   68  -0.490   0.220        0
  8320  1695-31-120     2   52   68   0.480  -0.330        0
  8321  1596-31-119     1   54   71  -0.340  -0.210        0
  8322  1683-31-68     -2   53   74  -0.420   0.170        0
  8323  1552-31-117     1   55   69  -0.080   0.070        0
  8324  1533-31-118     1   55   67   0.350  -0.310        0
  8325  1813-31-117     2   55   66   0.460   0.040        0
  8326  1538-31-117    -2   55   66   0.310  -0.280        0
  8327  1470-31-117     2   57   66  -0.120  -0.020        0
  8328  1453-31-117     1   57   69   0.370  -0.090        0
  8329  1502-31-120    -2   56   74   0.260  -0.350        0
  8330  1416-31-62     -2   59   63  -0.320  -0.110        0
  8331  1784-31-148    -2   52   76  -0.260  -0.240        0
  8332  1659-31-114    -2   53   76   0.120   0.090        0
  8333  1671-31-114    -2   53   75  -0.070   0.280        0
  8334  1602-31-114     2   54   80  -0.010  -0.270        0
  8335  1507-31-114     2   56   77   0.100   0.070        0
  8336  1514-31-114    -2   56   76  -0.090   0.320        0
  8337  1495-31-69     -2   56   77   0.410   0.170        0
  8338  1484-31-114     2   57   77  -0.320  -0.250        0
  8339  1483-31-114     2   57   80  -0.220   0.230        0
  8340  1239-31-113    -3   63   60  -0.270  -0.140        0
  8341  1234-31-113    -3   63   59  -0.420   0.470        0
  8342  1099-31-117    -3   66   63   0.330  -0.340        0
  8343  853-31-118      2   72   63   0.340  -0.300        0
  8344  720-31-1        2   79   29  -0.460  -0.420        0
  8345  729-31-118     -2   78   64   0.080  -0.360        0
  8346  679-31-118     -2   81   66   0.020  -0.500        0
  8347  810-31-118      2   74   63   0.250  -0.200        0
  8348  299-31-59      -2  101   60  -0.040   0.360        0
  8349  3281-32-351     2   11   16   0.350  -0.460        0
  8350  3347-32-97      3    6   64  -0.200  -0.130        0
  8351  3051-32-152    -2   24   20   0.220  -0.290        0
  8352  3004-32-94     -2   26   46   0.110   0.130        0
  8353  2997-32-94      2   26   56   0.230  -0.360        0
  8354  3016-32-94      2   26   58  -0.270  -0.350        0
  8355  3055-32-94      3   24   61   0.320  -0.330        0
  8356  2880-32-95      2   31   50   0.240  -0.210        0
  8357  2883-32-196     2   31   47   0.160  -0.460        0
  8358  2977-32-96     -2   27   60   0.460  -0.140        0
  8359  2914-32-96      2   30   52  -0.020   0.490        0
  8360  2930-32-96      2   30   61  -0.440  -0.430        0
  8361  2869-32-96      2   32   62  -0.410   0.190        0
  8362  2898-32-96      2   31   52  -0.480   0.190        0
  8363  2841-32-96      2   32   57   0.310  -0.290        0
  8364  2742-32-95      2   36   54   0.370   0.500        0
  8365  2956-32-95      2   28   65   0.260  -0.110        0
  8366  2441-32-216     3   45   20  -0.310   0.430        0
  8367  2477-32-137     3   44   27  -0.200   0.450        0
  8368  2334-32-335     2   46   71   0.240  -0.150        0
  8369  2314-32-342     2   46   69   0.280   0.420        0
  8370  2331-32-29      2   46   77   0.190  -0.240        0
  8371  2128-32-154     1   48   76   0.070  -0.440        0
  8372  2092-32-154     1   48   76   0.410  -0.400        0
  8373  2085-32-154     1   48   78   0.450   0.070        0
  8374  1278-32-50      2   62   62   0.120   0.070        0
  8375  1791-32-119    -2   52   72  -0.250  -0.010        0
  8376  1131-32-62      2   66   63  -0.400  -0.140        0
  8377  1035-32-71      1   68   65  -0.450  -0.190        0
  8378  2799-35-122    -2   34   44   0.030   0.500        0
  8379  861-35-329      2   72   31   0.200   0.390        0
  8380  3038-36-52     -3   25   35   0.140  -0.430        0
  8381  2937-36-86     -2   29   37   0.120   0.130        0
  8382  1428-36-91      3   58   24   0.140  -0.230        0
  8383  1106-36-164     3   66   37   0.310  -0.480        0
  8384  727-36-333     -2   78   79   0.060  -0.400        0
  8385  492-36-108      3   88   61   0.410   0.400        0
  8386  380-36-78      -2   96   63  -0.470  -0.460        0
  8387  3318-37-364    -2    8   24   0.430  -0.450        0
  8388  2476-37-182     2   44   60   0.060   0.090        0
  8389  2437-37-1       2   45   60  -0.440   0.440        0
  8390  1436-37-201     2   57   71   0.220   0.120        0
  8391  974-37-342      3   69   60  -0.370   0.450        0
  8392  981-37-84       2   68   83   0.110  -0.470        0
  8393  814-37-58       2   74   81   0.120  -0.480        0
  8394  697-37-41      -2   80   85  -0.150  -0.360        0
  8395  659-37-16      -3   82   78   0.040   0.380        0
1
                            STRESS PERIOD NO.    1, LENGTH =   366.0000    
                            -----------------------------------------------

                              NUMBER OF TIME STEPS =     1

                               MULTIPLIER FOR DELT =     1.000

                            INITIAL TIME STEP SIZE =   366.0000    

    408 WELLS



                         ET SURFACE
 READING ON UNIT   14 WITH FORMAT: (15F5.0)            



            EVAPOTRANSPIRATION RATE
 READING ON UNIT   14 WITH FORMAT: (15F5.0)            



                   EXTINCTION DEPTH
 READING ON UNIT   14 WITH FORMAT: (15F3.0)            



                           RECHARGE
 READING ON UNIT   16 WITH FORMAT: (15F5.0)            


     63 TIME-VARIANT SPECIFIED-HEAD CELLS
 
 SOLVING FOR HEAD 
                                                   Max.-Head-Change                         Max.-Flux-Residual
  Residual-Control   Outer-Iter.   Inner-Iter.     Column Row Layer    Maximum-Head-Change  Column Row Layer    Maximum-Flux-Residual          L2-NORM 
          0                 1          50            84   63     2      -0.3209591455E+03      84   63    2        -0.1078220100E+07      0.3009719337E+07
          0                 2          50            81   45     1      -0.8073683561E+02      91   75    2        -0.5131305185E+06      0.9075193708E+06
          0                 3          50            81   45     1       0.6557115072E+02      91   75    2        -0.1240487392E+06      0.3435643412E+06
          0                 4          50            81   45     1      -0.1246195907E+02      81   45    1        -0.6441570895E+05      0.7508313903E+05
          0                 5          50            92   75     2       0.2790606611E+01      81   45    1        -0.1126540468E+05      0.1352942852E+05
          0                 6          50            92   75     2       0.6902434169E+00      81   45    1        -0.1967963760E+04      0.2213912538E+04
          0                 7          50            81   45     1      -0.6602322511E-01      81   45    1        -0.3362908921E+03      0.3573331763E+03
          0                 8          48            81   45     1      -0.1127284736E-01      81   45    1        -0.5740955123E+02      0.5980742605E+02
          0                 9          25            81   45     1      -0.1923425075E-02      81   45    1        -0.9794218121E+01      0.1015932353E+02

    ------------------------------------------------
       NWT REQUIRED            9 OUTER ITERATIONS 
       AND A TOTAL OF        423 INNER ITERATIONS.
    ------------------------------------------------

 OUTPUT CONTROL FOR STRESS PERIOD    1   TIME STEP    1
    SAVE BUDGET
    SAVE HEAD FOR LAYERS:   1  2  3
 UBDSV2 SAVING "   CONSTANT HEAD" ON UNIT  39 AT TIME STEP  1, STRESS PERIOD   1
 UBDSV1 SAVING "FLOW RIGHT FACE " ON UNIT  39 AT TIME STEP  1, STRESS PERIOD   1
 UBDSV1 SAVING "FLOW FRONT FACE " ON UNIT  39 AT TIME STEP  1, STRESS PERIOD   1
 UBDSV1 SAVING "FLOW LOWER FACE " ON UNIT  39 AT TIME STEP  1, STRESS PERIOD   1
 UBDSV4 SAVING "           WELLS" ON UNIT  39 AT TIME STEP  1, STRESS PERIOD   1
 UBDSV3 SAVING "              ET" ON UNIT  39 AT TIME STEP  1, STRESS PERIOD   1
 UBDSV3 SAVING "        RECHARGE" ON UNIT  39 AT TIME STEP  1, STRESS PERIOD   1

 INTERPOLATION FOR HEAD OBS# 1759, ID 2574-1-107   CHANGED BECAUSE AT LEAST ONE
 NEIGHBORING CELL REQUIRED FOR INTERPOLATION IS DRY OR INACTIVE (OBS2BAS7SE)

 INTERPOLATION FOR HEAD OBS# 3660, ID 1891-1-365   CHANGED BECAUSE AT LEAST ONE
 NEIGHBORING CELL REQUIRED FOR INTERPOLATION IS DRY OR INACTIVE (OBS2BAS7SE)

 INTERPOLATION FOR HEAD OBS# 3787, ID 1282-1-277   CHANGED BECAUSE AT LEAST ONE
 NEIGHBORING CELL REQUIRED FOR INTERPOLATION IS DRY OR INACTIVE (OBS2BAS7SE)

 HEAD WILL BE SAVED ON UNIT   31 AT END OF TIME STEP    1, STRESS PERIOD    1
1
  VOLUMETRIC BUDGET FOR ENTIRE MODEL AT END OF TIME STEP    1, STRESS PERIOD   1
  ------------------------------------------------------------------------------

     CUMULATIVE VOLUMES      L**3       RATES FOR THIS TIME STEP      L**3/T
     ------------------                 ------------------------

           IN:                                      IN:
           ---                                      ---
             STORAGE =           0.0000               STORAGE =           0.0000
       CONSTANT HEAD =   463009664.0000         CONSTANT HEAD =     1265053.7500
               WELLS =   448584960.0000                 WELLS =     1225642.0000
                  ET =           0.0000                    ET =           0.0000
            RECHARGE =  3744436224.0000              RECHARGE =    10230700.0000

            TOTAL IN =  4656030720.0000              TOTAL IN =    12721396.0000

          OUT:                                     OUT:
          ----                                     ----
             STORAGE =           0.0000               STORAGE =           0.0000
       CONSTANT HEAD =  1125190016.0000         CONSTANT HEAD =     3074289.7500
               WELLS =  3069635328.0000                 WELLS =     8386982.0000
                  ET =   461210144.0000                    ET =     1260137.0000
            RECHARGE =           0.0000              RECHARGE =           0.0000

           TOTAL OUT =  4656035328.0000             TOTAL OUT =    12721409.0000

            IN - OUT =       -4608.0000              IN - OUT =         -13.0000

 PERCENT DISCREPANCY =          -0.00     PERCENT DISCREPANCY =          -0.00






         TIME SUMMARY AT END OF TIME STEP    1 IN STRESS PERIOD    1
                    SECONDS     MINUTES      HOURS       DAYS        YEARS
                    -----------------------------------------------------------
   TIME STEP LENGTH 3.16224E+07 5.27040E+05  8784.0      366.00      1.0021    
 STRESS PERIOD TIME 3.16224E+07 5.27040E+05  8784.0      366.00      1.0021    
         TOTAL TIME 3.16224E+07 5.27040E+05  8784.0      366.00      1.0021    
1
 A TOTAL OF 108 HYDROGRAPH POINTS HAVE BEEN PREPARED.
1
                            STRESS PERIOD NO.    2, LENGTH =   365.0000    
                            -----------------------------------------------

                              NUMBER OF TIME STEPS =    12

                               MULTIPLIER FOR DELT =     1.000

                            INITIAL TIME STEP SIZE =   30.41667    

    540 WELLS

 REUSING SURF FROM LAST STRESS PERIOD

 REUSING EVTR FROM LAST STRESS PERIOD

 REUSING EXDP FROM LAST STRESS PERIOD



                           RECHARGE
 READING ON UNIT   16 WITH FORMAT: (15F5.0)            


     63 TIME-VARIANT SPECIFIED-HEAD CELLS
 
 SOLVING FOR HEAD 
                                                   Max.-Head-Change                         Max.-Flux-Residual
  Residual-Control   Outer-Iter.   Inner-Iter.     Column Row Layer    Maximum-Head-Change  Column Row Layer    Maximum-Flux-Residual          L2-NORM 
          0                 1          11            64   91     3      -0.3834782193E+02      65   90    1        -0.3406169980E+06      0.8521785722E+06
          0                 2          10            77   46     1      -0.7325576515E+01      77   46    1        -0.2795203850E+06      0.2919409679E+06
          0                 3           5            78   46     1       0.3920487413E-01      77   46    1        -0.3077149166E+03      0.5738055212E+03
          0                 4           3            78   46     1       0.3864192279E-02      67   47    1         0.2464104268E+02      0.3210943918E+02

    ------------------------------------------------
       NWT REQUIRED            4 OUTER ITERATIONS 
       AND A TOTAL OF         29 INNER ITERATIONS.
    ------------------------------------------------

 NO OUTPUT CONTROL FOR STRESS PERIOD    2   TIME STEP    1

 INTERPOLATION FOR HEAD OBS# 1010, ID 2643-2-60    CHANGED BECAUSE AT LEAST ONE
 NEIGHBORING CELL REQUIRED FOR INTERPOLATION IS DRY OR INACTIVE (OBS2BAS7SE)
 
 SOLVING FOR HEAD 
                                                   Max.-Head-Change                         Max.-Flux-Residual
  Residual-Control   Outer-Iter.   Inner-Iter.     Column Row Layer    Maximum-Head-Change  Column Row Layer    Maximum-Flux-Residual          L2-NORM 
          0                 1          11            64   91     3      -0.8231856038E+01      65   90    1        -0.1259097497E+06      0.5156531654E+06
          0                 2           9            64   91     3       0.7458838388E+00      72   48    1        -0.1417733921E+05      0.5190829360E+05
          0                 3           4            92   51     3      -0.1520161642E-02      92   51    3        -0.1803322522E+02      0.2434461026E+02

    ------------------------------------------------
       NWT REQUIRED            3 OUTER ITERATIONS 
       AND A TOTAL OF         24 INNER ITERATIONS.
    ------------------------------------------------

 NO OUTPUT CONTROL FOR STRESS PERIOD    2   TIME STEP    2
 
 SOLVING FOR HEAD 
                                                   Max.-Head-Change                         Max.-Flux-Residual
  Residual-Control   Outer-Iter.   Inner-Iter.     Column Row Layer    Maximum-Head-Change  Column Row Layer    Maximum-Flux-Residual          L2-NORM 
          0                 1          10            65   93     3      -0.3411217125E+01      72   48    1         0.9762271840E+05      0.4075493927E+06
          0                 2           9            65   93     3       0.3100874164E+00      72   48    1        -0.9850062365E+04      0.4135078586E+05
          0                 3           4            66   46     1      -0.8643214178E-02      66   46    1        -0.5356829890E+03      0.5359035789E+03

    ------------------------------------------------
       NWT REQUIRED            3 OUTER ITERATIONS 
       AND A TOTAL OF         23 INNER ITERATIONS.
    ------------------------------------------------

 NO OUTPUT CONTROL FOR STRESS PERIOD    2   TIME STEP    3

 INTERPOLATION FOR HEAD OBS# 6243, ID 1164-2-93    CHANGED BECAUSE AT LEAST ONE
 NEIGHBORING CELL REQUIRED FOR INTERPOLATION IS DRY OR INACTIVE (OBS2BAS7SE)
 
 SOLVING FOR HEAD 
                                                   Max.-Head-Change                         Max.-Flux-Residual
  Residual-Control   Outer-Iter.   Inner-Iter.     Column Row Layer    Maximum-Head-Change  Column Row Layer    Maximum-Flux-Residual          L2-NORM 
          0                 1          10            81   45     1       0.2329972712E+01      72   48    1         0.8205069539E+05      0.3503267918E+06
          0                 2           9            81   45     1      -0.2134459436E+00      66   46    1        -0.9603669246E+04      0.3659471542E+05
          0                 3           4            70   46     1      -0.2755578715E-02      70   46    1        -0.8640049410E+02      0.8812447753E+02

    ------------------------------------------------
       NWT REQUIRED            3 OUTER ITERATIONS 
       AND A TOTAL OF         23 INNER ITERATIONS.
    ------------------------------------------------

 NO OUTPUT CONTROL FOR STRESS PERIOD    2   TIME STEP    4
 
 SOLVING FOR HEAD 
                                                   Max.-Head-Change                         Max.-Flux-Residual
  Residual-Control   Outer-Iter.   Inner-Iter.     Column Row Layer    Maximum-Head-Change  Column Row Layer    Maximum-Flux-Residual          L2-NORM 
          0                 1          10            81   45     1       0.2039522689E+01      72   48    1         0.6933923006E+05      0.3109439248E+06
          0                 2           9            81   45     1      -0.1855580472E+00      72   48    1        -0.6977783117E+04      0.3113568915E+05
          0                 3           4            80   45     1      -0.3484767786E-03      91   67    1        -0.9822257385E+00      0.2894528995E+01

    ------------------------------------------------
       NWT REQUIRED            3 OUTER ITERATIONS 
       AND A TOTAL OF         23 INNER ITERATIONS.
    ------------------------------------------------

 NO OUTPUT CONTROL FOR STRESS PERIOD    2   TIME STEP    5
 
 SOLVING FOR HEAD 
                                                   Max.-Head-Change                         Max.-Flux-Residual
  Residual-Control   Outer-Iter.   Inner-Iter.     Column Row Layer    Maximum-Head-Change  Column Row Layer    Maximum-Flux-Residual          L2-NORM 
          0                 1          10            81   45     1       0.1787875568E+01      81   46    1         0.6047633870E+05      0.2813836618E+06
          0                 2           9            81   45     1      -0.1618938513E+00      72   48    1        -0.5924626686E+04      0.2790284199E+05
          0                 3           4            80   45     1      -0.3736426926E-03      66   92    1         0.1286865917E+02      0.1842988182E+02

    ------------------------------------------------
       NWT REQUIRED            3 OUTER ITERATIONS 
       AND A TOTAL OF         23 INNER ITERATIONS.
    ------------------------------------------------

 NO OUTPUT CONTROL FOR STRESS PERIOD    2   TIME STEP    6
 
 SOLVING FOR HEAD 
                                                   Max.-Head-Change                         Max.-Flux-Residual
  Residual-Control   Outer-Iter.   Inner-Iter.     Column Row Layer    Maximum-Head-Change  Column Row Layer    Maximum-Flux-Residual          L2-NORM 
          0                 1          10            81   46     1       0.1803296048E+01      81   46    1         0.5796407572E+05      0.2593529592E+06
          0                 2           9            81   46     1      -0.1640489233E+00      81   46    1        -0.5801381816E+04      0.2598722853E+05
          0                 3           4            25   61     2      -0.5166534753E-02      25   61    2        -0.2765473395E+03      0.2765801051E+03

    ------------------------------------------------
       NWT REQUIRED            3 OUTER ITERATIONS 
       AND A TOTAL OF         23 INNER ITERATIONS.
    ------------------------------------------------

 NO OUTPUT CONTROL FOR STRESS PERIOD    2   TIME STEP    7
 
 SOLVING FOR HEAD 
                                                   Max.-Head-Change                         Max.-Flux-Residual
  Residual-Control   Outer-Iter.   Inner-Iter.     Column Row Layer    Maximum-Head-Change  Column Row Layer    Maximum-Flux-Residual          L2-NORM 
          0                 1          10            81   46     1       0.1752465398E+01      81   46    1         0.5637241374E+05      0.2420870503E+06
          0                 2           9            25   61     2      -0.1836612608E+00      81   46    1        -0.5681652919E+04      0.2451616564E+05
          0                 3           5            25   61     2       0.1644795993E-01      25   61    2         0.3712923182E+03      0.3791833342E+03
          0                 4           2            25   61     2       0.2182874216E-04      25   61    2         0.4573209137E+00      0.4927585030E+00

    ------------------------------------------------
       NWT REQUIRED            4 OUTER ITERATIONS 
       AND A TOTAL OF         26 INNER ITERATIONS.
    ------------------------------------------------

 NO OUTPUT CONTROL FOR STRESS PERIOD    2   TIME STEP    8
 
 SOLVING FOR HEAD 
                                                   Max.-Head-Change                         Max.-Flux-Residual
  Residual-Control   Outer-Iter.   Inner-Iter.     Column Row Layer    Maximum-Head-Change  Column Row Layer    Maximum-Flux-Residual          L2-NORM 
          0                 1          10            81   46     1       0.1699599790E+01      81   46    1         0.5475043762E+05      0.2281362965E+06
          0                 2           9            81   46     1      -0.1546470282E+00      81   46    1        -0.5481179070E+04      0.2291627675E+05
          0                 3           3            71   46     1      -0.5310170137E-02      71   46    1        -0.2245179934E+02      0.2922061645E+02

    ------------------------------------------------
       NWT REQUIRED            3 OUTER ITERATIONS 
       AND A TOTAL OF         22 INNER ITERATIONS.
    ------------------------------------------------

 NO OUTPUT CONTROL FOR STRESS PERIOD    2   TIME STEP    9
 
 SOLVING FOR HEAD 
                                                   Max.-Head-Change                         Max.-Flux-Residual
  Residual-Control   Outer-Iter.   Inner-Iter.     Column Row Layer    Maximum-Head-Change  Column Row Layer    Maximum-Flux-Residual          L2-NORM 
          0                 1          10            81   46     1       0.1648299933E+01      81   46    1         0.5313080055E+05      0.2165380332E+06
          0                 2           9            81   46     1      -0.1495773429E+00      81   46    1        -0.5318894977E+04      0.2153234280E+05
          0                 3           3            80   45     1      -0.3935719394E-03      71   46    1        -0.9252277920E+00      0.3070861049E+01

    ------------------------------------------------
       NWT REQUIRED            3 OUTER ITERATIONS 
       AND A TOTAL OF         22 INNER ITERATIONS.
    ------------------------------------------------

 NO OUTPUT CONTROL FOR STRESS PERIOD    2   TIME STEP   10
 
 SOLVING FOR HEAD 
                                                   Max.-Head-Change                         Max.-Flux-Residual
  Residual-Control   Outer-Iter.   Inner-Iter.     Column Row Layer    Maximum-Head-Change  Column Row Layer    Maximum-Flux-Residual          L2-NORM 
          0                 1          10            81   46     1       0.1599209482E+01      81   46    1         0.5154146698E+05      0.2069581332E+06
          0                 2           9            81   46     1      -0.1455054581E+00      81   46    1        -0.5159590749E+04      0.2069860622E+05
          0                 3           3            80   45     1      -0.4556996000E-03      63  106    2         0.2490212141E+01      0.4699228822E+01

    ------------------------------------------------
       NWT REQUIRED            3 OUTER ITERATIONS 
       AND A TOTAL OF         22 INNER ITERATIONS.
    ------------------------------------------------

 NO OUTPUT CONTROL FOR STRESS PERIOD    2   TIME STEP   11
 
 SOLVING FOR HEAD 
                                                   Max.-Head-Change                         Max.-Flux-Residual
  Residual-Control   Outer-Iter.   Inner-Iter.     Column Row Layer    Maximum-Head-Change  Column Row Layer    Maximum-Flux-Residual          L2-NORM 
          0                 1          10            81   46     1       0.1551030384E+01      81   46    1         0.4999374822E+05      0.1988502633E+06
          0                 2           9            81   46     1      -0.1411179298E+00      81   46    1        -0.5004488384E+04      0.1988659023E+05
          0                 3           3            80   45     1      -0.4658301409E-03      71   46    1        -0.9075553082E+00      0.3135272895E+01

    ------------------------------------------------
       NWT REQUIRED            3 OUTER ITERATIONS 
       AND A TOTAL OF         22 INNER ITERATIONS.
    ------------------------------------------------

 OUTPUT CONTROL FOR STRESS PERIOD    2   TIME STEP   12
    SAVE BUDGET
 UBDSV1 SAVING "         STORAGE" ON UNIT  39 AT TIME STEP 12, STRESS PERIOD   2
 UBDSV2 SAVING "   CONSTANT HEAD" ON UNIT  39 AT TIME STEP 12, STRESS PERIOD   2
 UBDSV1 SAVING "FLOW RIGHT FACE " ON UNIT  39 AT TIME STEP 12, STRESS PERIOD   2
 UBDSV1 SAVING "FLOW FRONT FACE " ON UNIT  39 AT TIME STEP 12, STRESS PERIOD   2
 UBDSV1 SAVING "FLOW LOWER FACE " ON UNIT  39 AT TIME STEP 12, STRESS PERIOD   2
 UBDSV4 SAVING "           WELLS" ON UNIT  39 AT TIME STEP 12, STRESS PERIOD   2
 UBDSV3 SAVING "              ET" ON UNIT  39 AT TIME STEP 12, STRESS PERIOD   2
 UBDSV3 SAVING "        RECHARGE" ON UNIT  39 AT TIME STEP 12, STRESS PERIOD   2
1
  VOLUMETRIC BUDGET FOR ENTIRE MODEL AT END OF TIME STEP   12, STRESS PERIOD   2
  ------------------------------------------------------------------------------

     CUMULATIVE VOLUMES      L**3       RATES FOR THIS TIME STEP      L**3/T
     ------------------                 ------------------------

           IN:                                      IN:
           ---                                      ---
             STORAGE =  1316870528.0000               STORAGE =     3335306.0000
       CONSTANT HEAD =   900783680.0000         CONSTANT HEAD =     1218228.0000
               WELLS =   895944192.0000                 WELLS =     1225642.0000
                  ET =           0.0000                    ET =           0.0000
            RECHARGE =  8669944832.0000              RECHARGE =    13494542.0000

            TOTAL IN = 11783542784.0000              TOTAL IN =    19273718.0000

          OUT:                                     OUT:
          ----                                     ----
             STORAGE =  1098498432.0000               STORAGE =     2380909.2500
       CONSTANT HEAD =  2279398400.0000         CONSTANT HEAD =     3231065.5000
               WELLS =  7256955392.0000                 WELLS =    11472110.0000
                  ET =  1148698880.0000                    ET =     2189643.0000
            RECHARGE =           0.0000              RECHARGE =           0.0000

           TOTAL OUT = 11783550976.0000             TOTAL OUT =    19273728.0000

            IN - OUT =       -8192.0000              IN - OUT =         -10.0000

 PERCENT DISCREPANCY =          -0.00     PERCENT DISCREPANCY =          -0.00






         TIME SUMMARY AT END OF TIME STEP   12 IN STRESS PERIOD    2
                    SECONDS     MINUTES      HOURS       DAYS        YEARS
                    -----------------------------------------------------------
   TIME STEP LENGTH 2.62800E+06  43800.      730.00      30.417     8.32763E-02
 STRESS PERIOD TIME 3.15360E+07 5.25600E+05  8760.0      365.00     0.99932    
         TOTAL TIME 6.31584E+07 1.05264E+06  17544.      731.00      2.0014    
1
1
                            STRESS PERIOD NO.    3, LENGTH =   365.0000    
                            -----------------------------------------------

                              NUMBER OF TIME STEPS =    12

                               MULTIPLIER FOR DELT =     1.000

                            INITIAL TIME STEP SIZE =   30.41667    

    745 WELLS

 REUSING SURF FROM LAST STRESS PERIOD

 REUSING EVTR FROM LAST STRESS PERIOD

 REUSING EXDP FROM LAST STRESS PERIOD



                           RECHARGE
 READING ON UNIT   16 WITH FORMAT: (15F5.0)            


     63 TIME-VARIANT SPECIFIED-HEAD CELLS
 
 SOLVING FOR HEAD 
                                                   Max.-Head-Change                         Max.-Flux-Residual
  Residual-Control   Outer-Iter.   Inner-Iter.     Column Row Layer    Maximum-Head-Change  Column Row Layer    Maximum-Flux-Residual          L2-NORM 
          0                 1          11            92   77     2      -0.2479259102E+02      65   90    1         0.3317819382E+06      0.7442391961E+06
          0                 2          10            92   77     2       0.7304728651E+01      65   90    1        -0.3283363246E+05      0.7335779880E+05
          0                 3           5            92   77     2       0.3803566336E+00      64   95    1        -0.2440410431E+03      0.4589629613E+03
          0                 4           4            92   77     2       0.1934927501E-01      64   95    1        -0.1940325315E+02      0.2301914353E+02
          0                 5           3            92   77     2       0.9851195291E-03      64   95    1        -0.1744360939E+01      0.1909125376E+01

    ------------------------------------------------
       NWT REQUIRED            5 OUTER ITERATIONS 
       AND A TOTAL OF         33 INNER ITERATIONS.
    ------------------------------------------------

 NO OUTPUT CONTROL FOR STRESS PERIOD    3   TIME STEP    1
 
 SOLVING FOR HEAD 
                                                   Max.-Head-Change                         Max.-Flux-Residual
  Residual-Control   Outer-Iter.   Inner-Iter.     Column Row Layer    Maximum-Head-Change  Column Row Layer    Maximum-Flux-Residual          L2-NORM 
          0                 1          11            64   91     3       0.3589638913E+01      65   90    1         0.1295824514E+06      0.4557810058E+06
          0                 2           9            81   45     1       0.3785708900E+00      65   90    1        -0.1354309062E+05      0.4718052179E+05
          0                 3           4            71   46     1       0.1938953480E-02      61   82    1        -0.7637621829E+02      0.1117530459E+03

    ------------------------------------------------
       NWT REQUIRED            3 OUTER ITERATIONS 
       AND A TOTAL OF         24 INNER ITERATIONS.
    ------------------------------------------------

 NO OUTPUT CONTROL FOR STRESS PERIOD    3   TIME STEP    2
 
 SOLVING FOR HEAD 
                                                   Max.-Head-Change                         Max.-Flux-Residual
  Residual-Control   Outer-Iter.   Inner-Iter.     Column Row Layer    Maximum-Head-Change  Column Row Layer    Maximum-Flux-Residual          L2-NORM 
          0                 1          11            81   45     1      -0.1907414025E+01      76   48    1        -0.6390647646E+05      0.3576261055E+06
          0                 2           9            81   45     1       0.1731738598E+00      76   48    1         0.6374221588E+04      0.3570414887E+05
          0                 3           4            92   77     2       0.4284791071E-03      66   92    1         0.7435527293E+01      0.1131089489E+02

    ------------------------------------------------
       NWT REQUIRED            3 OUTER ITERATIONS 
       AND A TOTAL OF         24 INNER ITERATIONS.
    ------------------------------------------------

 NO OUTPUT CONTROL FOR STRESS PERIOD    3   TIME STEP    3
 
 SOLVING FOR HEAD 
                                                   Max.-Head-Change                         Max.-Flux-Residual
  Residual-Control   Outer-Iter.   Inner-Iter.     Column Row Layer    Maximum-Head-Change  Column Row Layer    Maximum-Flux-Residual          L2-NORM 
          0                 1          10            81   45     1      -0.1660862158E+01      81   45    1        -0.5168592278E+05      0.3078971850E+06
          0                 2           9            81   45     1       0.1508658725E+00      81   45    1         0.5163286831E+04      0.3072820923E+05
          0                 3           4            70   46     1      -0.2436332662E-02      70   46    1        -0.7332885913E+02      0.7373864406E+02

    ------------------------------------------------
       NWT REQUIRED            3 OUTER ITERATIONS 
       AND A TOTAL OF         23 INNER ITERATIONS.
    ------------------------------------------------

 NO OUTPUT CONTROL FOR STRESS PERIOD    3   TIME STEP    4
 
 SOLVING FOR HEAD 
                                                   Max.-Head-Change                         Max.-Flux-Residual
  Residual-Control   Outer-Iter.   Inner-Iter.     Column Row Layer    Maximum-Head-Change  Column Row Layer    Maximum-Flux-Residual          L2-NORM 
          0                 1          10            81   45     1      -0.1447604249E+01      81   45    1        -0.4500220673E+05      0.2761219089E+06
          0                 2           9            81   45     1       0.1315107457E+00      81   45    1         0.4496352645E+04      0.2758379105E+05
          0                 3           4            59   83     1       0.6523893023E-03      92   51    2        -0.1059941091E+02      0.2057037162E+02

    ------------------------------------------------
       NWT REQUIRED            3 OUTER ITERATIONS 
       AND A TOTAL OF         23 INNER ITERATIONS.
    ------------------------------------------------

 NO OUTPUT CONTROL FOR STRESS PERIOD    3   TIME STEP    5
 
 SOLVING FOR HEAD 
                                                   Max.-Head-Change                         Max.-Flux-Residual
  Residual-Control   Outer-Iter.   Inner-Iter.     Column Row Layer    Maximum-Head-Change  Column Row Layer    Maximum-Flux-Residual          L2-NORM 
          0                 1          10            81   46     1      -0.1317583551E+01      81   46    1        -0.4250586340E+05      0.2538224627E+06
          0                 2           9            81   46     1       0.1197159678E+00      81   46    1         0.4247791618E+04      0.2548918061E+05
          0                 3           6            15   35     2      -0.5732191282E-02      15   35    2        -0.2912129738E+03      0.2912390684E+03

    ------------------------------------------------
       NWT REQUIRED            3 OUTER ITERATIONS 
       AND A TOTAL OF         25 INNER ITERATIONS.
    ------------------------------------------------

 NO OUTPUT CONTROL FOR STRESS PERIOD    3   TIME STEP    6
 
 SOLVING FOR HEAD 
                                                   Max.-Head-Change                         Max.-Flux-Residual
  Residual-Control   Outer-Iter.   Inner-Iter.     Column Row Layer    Maximum-Head-Change  Column Row Layer    Maximum-Flux-Residual          L2-NORM 
          0                 1          10            81   46     1      -0.1276211462E+01      81   46    1        -0.4119369814E+05      0.2373786964E+06
          0                 2           9            81   46     1       0.1159551803E+00      81   46    1         0.4116646618E+04      0.2377536539E+05
          0                 3           5            15   35     2       0.6295249804E-02      15   35    2         0.1273565438E+03      0.1305372267E+03

    ------------------------------------------------
       NWT REQUIRED            3 OUTER ITERATIONS 
       AND A TOTAL OF         24 INNER ITERATIONS.
    ------------------------------------------------

 NO OUTPUT CONTROL FOR STRESS PERIOD    3   TIME STEP    7

 INTERPOLATION FOR HEAD OBS# 1867, ID 2629-3-217   CHANGED BECAUSE AT LEAST ONE
 NEIGHBORING CELL REQUIRED FOR INTERPOLATION IS DRY OR INACTIVE (OBS2BAS7SE)
 
 SOLVING FOR HEAD 
                                                   Max.-Head-Change                         Max.-Flux-Residual
  Residual-Control   Outer-Iter.   Inner-Iter.     Column Row Layer    Maximum-Head-Change  Column Row Layer    Maximum-Flux-Residual          L2-NORM 
          0                 1          10            81   46     1      -0.1235612906E+01      81   46    1        -0.3989996325E+05      0.2248163945E+06
          0                 2           9            81   46     1       0.1122688738E+00      81   46    1         0.3987375291E+04      0.2247199774E+05
          0                 3           4            67   45     2       0.3700484889E-03      87   51    1        -0.5181343481E+01      0.9315485217E+01

    ------------------------------------------------
       NWT REQUIRED            3 OUTER ITERATIONS 
       AND A TOTAL OF         23 INNER ITERATIONS.
    ------------------------------------------------

 NO OUTPUT CONTROL FOR STRESS PERIOD    3   TIME STEP    8
 
 SOLVING FOR HEAD 
                                                   Max.-Head-Change                         Max.-Flux-Residual
  Residual-Control   Outer-Iter.   Inner-Iter.     Column Row Layer    Maximum-Head-Change  Column Row Layer    Maximum-Flux-Residual          L2-NORM 
          0                 1          10            81   46     1      -0.1195804425E+01      81   46    1        -0.3863030222E+05      0.2149307228E+06
          0                 2           9            81   46     1       0.1583727359E+00      81   46    1         0.6136343816E+04      0.2200518317E+05
          0                 3           4            56  107     1      -0.2060211481E-02      56  107    1        -0.1102996602E+03      0.1103766573E+03

    ------------------------------------------------
       NWT REQUIRED            3 OUTER ITERATIONS 
       AND A TOTAL OF         23 INNER ITERATIONS.
    ------------------------------------------------

 NO OUTPUT CONTROL FOR STRESS PERIOD    3   TIME STEP    9
 
 SOLVING FOR HEAD 
                                                   Max.-Head-Change                         Max.-Flux-Residual
  Residual-Control   Outer-Iter.   Inner-Iter.     Column Row Layer    Maximum-Head-Change  Column Row Layer    Maximum-Flux-Residual          L2-NORM 
          0                 1          10            81   46     1      -0.1015400863E+01      81   46    1        -0.3567567054E+05      0.2066971083E+06
          0                 2           9            56  107     1      -0.1549117125E+00      81   46    1         0.3565796611E+04      0.2085600745E+05
          0                 3           4            56  107     1       0.1383413656E-01      56  107    1         0.2783768259E+03      0.2822457055E+03
          0                 4           2            56  107     1       0.2203011987E-04      56  107    1         0.4147038758E+00      0.4186101245E+00

    ------------------------------------------------
       NWT REQUIRED            4 OUTER ITERATIONS 
       AND A TOTAL OF         25 INNER ITERATIONS.
    ------------------------------------------------

 NO OUTPUT CONTROL FOR STRESS PERIOD    3   TIME STEP   10
 
 SOLVING FOR HEAD 
                                                   Max.-Head-Change                         Max.-Flux-Residual
  Residual-Control   Outer-Iter.   Inner-Iter.     Column Row Layer    Maximum-Head-Change  Column Row Layer    Maximum-Flux-Residual          L2-NORM 
          0                 1          10            81   46     1      -0.9036807645E+00      81   46    1        -0.3174474606E+05      0.1997761197E+06
          0                 2           9            81   46     1       0.8212363383E-01      81   46    1         0.3173080570E+04      0.1997788203E+05
          0                 3           4            92   77     2       0.2537523245E-03      42   36    1         0.1120739132E+01      0.4224786878E+01

    ------------------------------------------------
       NWT REQUIRED            3 OUTER ITERATIONS 
       AND A TOTAL OF         23 INNER ITERATIONS.
    ------------------------------------------------

 NO OUTPUT CONTROL FOR STRESS PERIOD    3   TIME STEP   11
 
 SOLVING FOR HEAD 
                                                   Max.-Head-Change                         Max.-Flux-Residual
  Residual-Control   Outer-Iter.   Inner-Iter.     Column Row Layer    Maximum-Head-Change  Column Row Layer    Maximum-Flux-Residual          L2-NORM 
          0                 1          10            81   46     1      -0.8043843919E+00      81   46    1        -0.2825172486E+05      0.1939985283E+06
          0                 2           9            81   46     1       0.7310287123E-01      81   46    1         0.2824074657E+04      0.1960771598E+05
          0                 3           6            14   17     1      -0.4154996909E-02      14   17    1        -0.2979753700E+03      0.2999222488E+03

    ------------------------------------------------
       NWT REQUIRED            3 OUTER ITERATIONS 
       AND A TOTAL OF         25 INNER ITERATIONS.
    ------------------------------------------------

 OUTPUT CONTROL FOR STRESS PERIOD    3   TIME STEP   12
    SAVE BUDGET
 UBDSV1 SAVING "         STORAGE" ON UNIT  39 AT TIME STEP 12, STRESS PERIOD   3
 UBDSV2 SAVING "   CONSTANT HEAD" ON UNIT  39 AT TIME STEP 12, STRESS PERIOD   3
 UBDSV1 SAVING "FLOW RIGHT FACE " ON UNIT  39 AT TIME STEP 12, STRESS PERIOD   3
 UBDSV1 SAVING "FLOW FRONT FACE " ON UNIT  39 AT TIME STEP 12, STRESS PERIOD   3
 UBDSV1 SAVING "FLOW LOWER FACE " ON UNIT  39 AT TIME STEP 12, STRESS PERIOD   3
 UBDSV4 SAVING "           WELLS" ON UNIT  39 AT TIME STEP 12, STRESS PERIOD   3
 UBDSV3 SAVING "              ET" ON UNIT  39 AT TIME STEP 12, STRESS PERIOD   3
 UBDSV3 SAVING "        RECHARGE" ON UNIT  39 AT TIME STEP 12, STRESS PERIOD   3
1
  VOLUMETRIC BUDGET FOR ENTIRE MODEL AT END OF TIME STEP   12, STRESS PERIOD   3
  ------------------------------------------------------------------------------

     CUMULATIVE VOLUMES      L**3       RATES FOR THIS TIME STEP      L**3/T
     ------------------                 ------------------------

           IN:                                      IN:
           ---                                      ---
             STORAGE =  3970799104.0000               STORAGE =     6564563.5000
       CONSTANT HEAD =  1328732800.0000         CONSTANT HEAD =     1149347.1250
               WELLS =  1343303936.0000                 WELLS =     1225642.0000
                  ET =           0.0000                    ET =           0.0000
            RECHARGE = 11984239616.0000              RECHARGE =     9080258.0000

            TOTAL IN = 18627076096.0000              TOTAL IN =    18019810.0000

          OUT:                                     OUT:
          ----                                     ----
             STORAGE =  1416517376.0000               STORAGE =      414319.8125
       CONSTANT HEAD =  3446912768.0000         CONSTANT HEAD =     3194357.2500
               WELLS = 12030633984.0000                 WELLS =    13078566.0000
                  ET =  1733025792.0000                    ET =     1332601.3750
            RECHARGE =           0.0000              RECHARGE =           0.0000

           TOTAL OUT = 18627090432.0000             TOTAL OUT =    18019844.0000

            IN - OUT =      -14336.0000              IN - OUT =         -34.0000

 PERCENT DISCREPANCY =          -0.00     PERCENT DISCREPANCY =          -0.00






         TIME SUMMARY AT END OF TIME STEP   12 IN STRESS PERIOD    3
                    SECONDS     MINUTES      HOURS       DAYS        YEARS
                    -----------------------------------------------------------
   TIME STEP LENGTH 2.62800E+06  43800.      730.00      30.417     8.32763E-02
 STRESS PERIOD TIME 3.15360E+07 5.25600E+05  8760.0      365.00     0.99932    
         TOTAL TIME 9.46944E+07 1.57824E+06  26304.      1096.0      3.0007    
1
1
                            STRESS PERIOD NO.    4, LENGTH =   365.0000    
                            -----------------------------------------------

                              NUMBER OF TIME STEPS =    12

                               MULTIPLIER FOR DELT =     1.000

                            INITIAL TIME STEP SIZE =   30.41667    

    755 WELLS

 REUSING SURF FROM LAST STRESS PERIOD

 REUSING EVTR FROM LAST STRESS PERIOD

 REUSING EXDP FROM LAST STRESS PERIOD



                           RECHARGE
 READING ON UNIT   16 WITH FORMAT: (15F5.0)            


     63 TIME-VARIANT SPECIFIED-HEAD CELLS
 
 SOLVING FOR HEAD 
                                                   Max.-Head-Change                         Max.-Flux-Residual
  Residual-Control   Outer-Iter.   Inner-Iter.     Column Row Layer    Maximum-Head-Change  Column Row Layer    Maximum-Flux-Residual          L2-NORM 
          0                 1          11            90   52     3      -0.6902387056E+01      29   18    2        -0.1277808362E+06      0.4585881115E+06
          0                 2          10            90   52     3       0.3921829024E+00      29   18    2         0.1277808382E+05      0.4564696454E+05
          0                 3           5            91   52     3       0.1083709737E-01      14   17    1         0.1923662978E+03      0.2390761569E+03
          0                 4           2            92   77     2       0.5639268049E-03      85   51    1        -0.1498764679E+01      0.1616689959E+01

    ------------------------------------------------
       NWT REQUIRED            4 OUTER ITERATIONS 
       AND A TOTAL OF         28 INNER ITERATIONS.
    ------------------------------------------------

 NO OUTPUT CONTROL FOR STRESS PERIOD    4   TIME STEP    1
 
 SOLVING FOR HEAD 
                                                   Max.-Head-Change                         Max.-Flux-Residual
  Residual-Control   Outer-Iter.   Inner-Iter.     Column Row Layer    Maximum-Head-Change  Column Row Layer    Maximum-Flux-Residual          L2-NORM 
          0                 1          11            31   20     1      -0.1191862370E+01      31   20    1        -0.5320309443E+05      0.2520031538E+06
          0                 2           9            31   20     1       0.1071686928E+00      31   20    1         0.5228281965E+04      0.2515790966E+05
          0                 3           4            68   47     2      -0.4973254871E-03      59   60    1        -0.1205043173E+02      0.2204026178E+02

    ------------------------------------------------
       NWT REQUIRED            3 OUTER ITERATIONS 
       AND A TOTAL OF         24 INNER ITERATIONS.
    ------------------------------------------------

 NO OUTPUT CONTROL FOR STRESS PERIOD    4   TIME STEP    2
 
 SOLVING FOR HEAD 
                                                   Max.-Head-Change                         Max.-Flux-Residual
  Residual-Control   Outer-Iter.   Inner-Iter.     Column Row Layer    Maximum-Head-Change  Column Row Layer    Maximum-Flux-Residual          L2-NORM 
          0                 1          10            31   20     1      -0.7882756702E+00      31   20    1        -0.3232608584E+05      0.1955583276E+06
          0                 2           9            31   20     1       0.7176646484E-01      31   20    1         0.3242741885E+04      0.1954557622E+05
          0                 3           4            28   15     1       0.2105836388E-02      28   15    1         0.4937579764E+02      0.5608294175E+02

    ------------------------------------------------
       NWT REQUIRED            3 OUTER ITERATIONS 
       AND A TOTAL OF         23 INNER ITERATIONS.
    ------------------------------------------------

 NO OUTPUT CONTROL FOR STRESS PERIOD    4   TIME STEP    3
 
 SOLVING FOR HEAD 
                                                   Max.-Head-Change                         Max.-Flux-Residual
  Residual-Control   Outer-Iter.   Inner-Iter.     Column Row Layer    Maximum-Head-Change  Column Row Layer    Maximum-Flux-Residual          L2-NORM 
          0                 1          10            70   47     1      -0.6288729105E+00      70   47    1        -0.2504810401E+05      0.1694119637E+06
          0                 2           9            70   47     1       0.5710881056E-01      70   47    1         0.2501456203E+04      0.1693325328E+05
          0                 3           4            92   77     2       0.4283891063E-03      30   20    1        -0.2214385003E+01      0.5175583021E+01

    ------------------------------------------------
       NWT REQUIRED            3 OUTER ITERATIONS 
       AND A TOTAL OF         23 INNER ITERATIONS.
    ------------------------------------------------

 NO OUTPUT CONTROL FOR STRESS PERIOD    4   TIME STEP    4
 
 SOLVING FOR HEAD 
                                                   Max.-Head-Change                         Max.-Flux-Residual
  Residual-Control   Outer-Iter.   Inner-Iter.     Column Row Layer    Maximum-Head-Change  Column Row Layer    Maximum-Flux-Residual          L2-NORM 
          0                 1          10            71   47     1      -0.5639654332E+00      70   47    1        -0.2229499565E+05      0.1543259701E+06
          0                 2           9            71   47     1       0.5121804576E-01      70   47    1         0.2227058582E+04      0.1542917495E+05
          0                 3           4            92   77     2       0.4084557847E-03      84   51    1         0.4221544310E+01      0.6544530983E+01

    ------------------------------------------------
       NWT REQUIRED            3 OUTER ITERATIONS 
       AND A TOTAL OF         23 INNER ITERATIONS.
    ------------------------------------------------

 NO OUTPUT CONTROL FOR STRESS PERIOD    4   TIME STEP    5
 
 SOLVING FOR HEAD 
                                                   Max.-Head-Change                         Max.-Flux-Residual
  Residual-Control   Outer-Iter.   Inner-Iter.     Column Row Layer    Maximum-Head-Change  Column Row Layer    Maximum-Flux-Residual          L2-NORM 
          0                 1          10            71   47     1      -0.5214231102E+00      71   47    1        -0.1999092317E+05      0.1443065273E+06
          0                 2           9            71   47     1       0.4742165807E-01      71   47    1         0.1996607727E+04      0.1443082380E+05
          0                 3           4            92   77     2       0.3909441383E-03      43   38    1         0.6221881360E+00      0.3917659773E+01

    ------------------------------------------------
       NWT REQUIRED            3 OUTER ITERATIONS 
       AND A TOTAL OF         23 INNER ITERATIONS.
    ------------------------------------------------

 NO OUTPUT CONTROL FOR STRESS PERIOD    4   TIME STEP    6
 
 SOLVING FOR HEAD 
                                                   Max.-Head-Change                         Max.-Flux-Residual
  Residual-Control   Outer-Iter.   Inner-Iter.     Column Row Layer    Maximum-Head-Change  Column Row Layer    Maximum-Flux-Residual          L2-NORM 
          0                 1          10            71   47     1      -0.4827135861E+00      71   47    1        -0.1848023890E+05      0.1370825584E+06
          0                 2           9            71   47     1       0.4384353555E-01      71   47    1         0.1845846354E+04      0.1371516448E+05
          0                 3           4            59   39     1       0.2741156642E-02      59   39    1         0.2104982998E+02      0.2874546785E+02

    ------------------------------------------------
       NWT REQUIRED            3 OUTER ITERATIONS 
       AND A TOTAL OF         23 INNER ITERATIONS.
    ------------------------------------------------

 NO OUTPUT CONTROL FOR STRESS PERIOD    4   TIME STEP    7
 
 SOLVING FOR HEAD 
                                                   Max.-Head-Change                         Max.-Flux-Residual
  Residual-Control   Outer-Iter.   Inner-Iter.     Column Row Layer    Maximum-Head-Change  Column Row Layer    Maximum-Flux-Residual          L2-NORM 
          0                 1          10            71   47     1      -0.4477018810E+00      71   47    1        -0.1711050733E+05      0.1315944077E+06
          0                 2           9            71   47     1       0.4066511015E-01      71   47    1         0.1709149234E+04      0.1315618779E+05
          0                 3           4            92   77     2       0.3612559400E-03      43   38    1         0.5747477114E+00      0.3774776052E+01

    ------------------------------------------------
       NWT REQUIRED            3 OUTER ITERATIONS 
       AND A TOTAL OF         23 INNER ITERATIONS.
    ------------------------------------------------

 NO OUTPUT CONTROL FOR STRESS PERIOD    4   TIME STEP    8
 
 SOLVING FOR HEAD 
                                                   Max.-Head-Change                         Max.-Flux-Residual
  Residual-Control   Outer-Iter.   Inner-Iter.     Column Row Layer    Maximum-Head-Change  Column Row Layer    Maximum-Flux-Residual          L2-NORM 
          0                 1          10            71   47     1      -0.4159379761E+00      71   47    1        -0.1586935895E+05      0.1272850316E+06
          0                 2           9            71   47     1       0.3778090705E-01      71   47    1         0.1585279209E+04      0.1276303734E+05
          0                 3           4            92   77     2       0.3484099599E-03      66   95    1        -0.1520461606E+01      0.4270447715E+01

    ------------------------------------------------
       NWT REQUIRED            3 OUTER ITERATIONS 
       AND A TOTAL OF         23 INNER ITERATIONS.
    ------------------------------------------------

 NO OUTPUT CONTROL FOR STRESS PERIOD    4   TIME STEP    9
 
 SOLVING FOR HEAD 
                                                   Max.-Head-Change                         Max.-Flux-Residual
  Residual-Control   Outer-Iter.   Inner-Iter.     Column Row Layer    Maximum-Head-Change  Column Row Layer    Maximum-Flux-Residual          L2-NORM 
          0                 1          10            71   47     1      -0.3870847334E+00      71   47    1        -0.1474337913E+05      0.1238250952E+06
          0                 2           9            71   47     1       0.3516262556E-01      71   47    1         0.1472896658E+04      0.1238124826E+05
          0                 3           4            67    9     2       0.3905101904E-03      43   38    1         0.5257359296E+00      0.3621097933E+01

    ------------------------------------------------
       NWT REQUIRED            3 OUTER ITERATIONS 
       AND A TOTAL OF         23 INNER ITERATIONS.
    ------------------------------------------------

 NO OUTPUT CONTROL FOR STRESS PERIOD    4   TIME STEP   10
 
 SOLVING FOR HEAD 
                                                   Max.-Head-Change                         Max.-Flux-Residual
  Residual-Control   Outer-Iter.   Inner-Iter.     Column Row Layer    Maximum-Head-Change  Column Row Layer    Maximum-Flux-Residual          L2-NORM 
          0                 1          10            71   47     1      -0.3608403197E+00      71   47    1        -0.1372051115E+05      0.1209822996E+06
          0                 2           9            56   34     1      -0.3305188671E+00      71   47    1         0.1370798251E+04      0.1213516310E+05
          0                 3           4            56   34     1       0.2646807092E-01      56   34    1         0.8609369094E+02      0.9219358632E+02
          0                 4           2            56   34     1       0.2866467780E-03      56   34    1         0.9153592344E+00      0.9382390621E+00

    ------------------------------------------------
       NWT REQUIRED            4 OUTER ITERATIONS 
       AND A TOTAL OF         25 INNER ITERATIONS.
    ------------------------------------------------

 NO OUTPUT CONTROL FOR STRESS PERIOD    4   TIME STEP   11
 
 SOLVING FOR HEAD 
                                                   Max.-Head-Change                         Max.-Flux-Residual
  Residual-Control   Outer-Iter.   Inner-Iter.     Column Row Layer    Maximum-Head-Change  Column Row Layer    Maximum-Flux-Residual          L2-NORM 
          0                 1          10            71   47     1      -0.3369390452E+00      71   47    1        -0.1279017896E+05      0.1185994369E+06
          0                 2           9            71   47     1       0.3061018350E-01      71   47    1         0.1277929107E+04      0.1185874277E+05
          0                 3           4            92   77     2       0.3154373485E-03      23   54    2         0.1004518196E+02      0.1381774163E+02

    ------------------------------------------------
       NWT REQUIRED            3 OUTER ITERATIONS 
       AND A TOTAL OF         23 INNER ITERATIONS.
    ------------------------------------------------

 OUTPUT CONTROL FOR STRESS PERIOD    4   TIME STEP   12
    SAVE BUDGET
 UBDSV1 SAVING "         STORAGE" ON UNIT  39 AT TIME STEP 12, STRESS PERIOD   4
 UBDSV2 SAVING "   CONSTANT HEAD" ON UNIT  39 AT TIME STEP 12, STRESS PERIOD   4
 UBDSV1 SAVING "FLOW RIGHT FACE " ON UNIT  39 AT TIME STEP 12, STRESS PERIOD   4
 UBDSV1 SAVING "FLOW FRONT FACE " ON UNIT  39 AT TIME STEP 12, STRESS PERIOD   4
 UBDSV1 SAVING "FLOW LOWER FACE " ON UNIT  39 AT TIME STEP 12, STRESS PERIOD   4
 UBDSV4 SAVING "           WELLS" ON UNIT  39 AT TIME STEP 12, STRESS PERIOD   4
 UBDSV3 SAVING "              ET" ON UNIT  39 AT TIME STEP 12, STRESS PERIOD   4
 UBDSV3 SAVING "        RECHARGE" ON UNIT  39 AT TIME STEP 12, STRESS PERIOD   4
1
  VOLUMETRIC BUDGET FOR ENTIRE MODEL AT END OF TIME STEP   12, STRESS PERIOD   4
  ------------------------------------------------------------------------------

     CUMULATIVE VOLUMES      L**3       RATES FOR THIS TIME STEP      L**3/T
     ------------------                 ------------------------

           IN:                                      IN:
           ---                                      ---
             STORAGE =  5888075264.0000               STORAGE =     4907985.0000
       CONSTANT HEAD =  1748470784.0000         CONSTANT HEAD =     1148917.3750
               WELLS =  1790663936.0000                 WELLS =     1225642.0000
                  ET =           0.0000                    ET =           0.0000
            RECHARGE = 16069704704.0000              RECHARGE =    11193061.0000

            TOTAL IN = 25496913920.0000              TOTAL IN =    18475604.0000

          OUT:                                     OUT:
          ----                                     ----
             STORAGE =  1590110464.0000               STORAGE =      154246.0156
       CONSTANT HEAD =  4630594560.0000         CONSTANT HEAD =     3270812.0000
               WELLS = 17083975680.0000                 WELLS =    13844774.0000
                  ET =  2192252416.0000                    ET =     1205782.1250
            RECHARGE =           0.0000              RECHARGE =           0.0000

           TOTAL OUT = 25496934400.0000             TOTAL OUT =    18475614.0000

            IN - OUT =      -20480.0000              IN - OUT =         -10.0000

 PERCENT DISCREPANCY =          -0.00     PERCENT DISCREPANCY =          -0.00






         TIME SUMMARY AT END OF TIME STEP   12 IN STRESS PERIOD    4
                    SECONDS     MINUTES      HOURS       DAYS        YEARS
                    -----------------------------------------------------------
   TIME STEP LENGTH 2.62800E+06  43800.      730.00      30.417     8.32763E-02
 STRESS PERIOD TIME 3.15360E+07 5.25600E+05  8760.0      365.00     0.99932    
         TOTAL TIME 1.26230E+08 2.10384E+06  35064.      1461.0      4.0000    
1
1
                            STRESS PERIOD NO.    5, LENGTH =   366.0000    
                            -----------------------------------------------

                              NUMBER OF TIME STEPS =    12

                               MULTIPLIER FOR DELT =     1.000

                            INITIAL TIME STEP SIZE =   30.50000    

    767 WELLS

 REUSING SURF FROM LAST STRESS PERIOD

 REUSING EVTR FROM LAST STRESS PERIOD

 REUSING EXDP FROM LAST STRESS PERIOD



                           RECHARGE
 READING ON UNIT   16 WITH FORMAT: (15F5.0)            


     63 TIME-VARIANT SPECIFIED-HEAD CELLS
 
 SOLVING FOR HEAD 
                                                   Max.-Head-Change                         Max.-Flux-Residual
  Residual-Control   Outer-Iter.   Inner-Iter.     Column Row Layer    Maximum-Head-Change  Column Row Layer    Maximum-Flux-Residual          L2-NORM 
          0                 1          10            92   77     2       0.1637532278E+02      81   45    1         0.9740295328E+05      0.3764511870E+06
          0                 2           9            92   77     2      -0.6185418022E+00      81   45    1        -0.9820791167E+04      0.3876200409E+05
          0                 3           5            92   77     2      -0.3393697698E-01      63   81    1        -0.1391080601E+03      0.1984403317E+03
          0                 4           4            92   77     2      -0.1856001135E-02      63   81    1        -0.1060317406E+02      0.1086210928E+02

    ------------------------------------------------
       NWT REQUIRED            4 OUTER ITERATIONS 
       AND A TOTAL OF         28 INNER ITERATIONS.
    ------------------------------------------------

 NO OUTPUT CONTROL FOR STRESS PERIOD    5   TIME STEP    1
 
 SOLVING FOR HEAD 
                                                   Max.-Head-Change                         Max.-Flux-Residual
  Residual-Control   Outer-Iter.   Inner-Iter.     Column Row Layer    Maximum-Head-Change  Column Row Layer    Maximum-Flux-Residual          L2-NORM 
          0                 1          10            81   45     1       0.2751118099E+01      81   45    1         0.8502511907E+05      0.2566959503E+06
          0                 2           9            81   45     1      -0.2504063246E+00      81   45    1        -0.8515938409E+04      0.2550435607E+05
          0                 3           4            92   77     2      -0.2480966261E-03      79   49    1        -0.3596064446E+01      0.6190570594E+01

    ------------------------------------------------
       NWT REQUIRED            3 OUTER ITERATIONS 
       AND A TOTAL OF         23 INNER ITERATIONS.
    ------------------------------------------------

 NO OUTPUT CONTROL FOR STRESS PERIOD    5   TIME STEP    2
 
 SOLVING FOR HEAD 
                                                   Max.-Head-Change                         Max.-Flux-Residual
  Residual-Control   Outer-Iter.   Inner-Iter.     Column Row Layer    Maximum-Head-Change  Column Row Layer    Maximum-Flux-Residual          L2-NORM 
          0                 1          10            81   45     1       0.2406099313E+01      81   45    1         0.7432158702E+05      0.2182141915E+06
          0                 2           9            81   45     1      -0.2188880980E+00      81   45    1        -0.7442194503E+04      0.2185251655E+05
          0                 3           4            81   45     2      -0.9248511920E-03      81   45    2        -0.5364878664E+01      0.8621261352E+01

    ------------------------------------------------
       NWT REQUIRED            3 OUTER ITERATIONS 
       AND A TOTAL OF         23 INNER ITERATIONS.
    ------------------------------------------------

 NO OUTPUT CONTROL FOR STRESS PERIOD    5   TIME STEP    3
 
 SOLVING FOR HEAD 
                                                   Max.-Head-Change                         Max.-Flux-Residual
  Residual-Control   Outer-Iter.   Inner-Iter.     Column Row Layer    Maximum-Head-Change  Column Row Layer    Maximum-Flux-Residual          L2-NORM 
          0                 1          10            81   45     1       0.2105561395E+01      81   46    1         0.6603973499E+05      0.1973600544E+06
          0                 2           9            81   45     1      -0.1928815526E+00      81   45    1        -0.6507800341E+04      0.1951263667E+05
          0                 3           4            80   45     1      -0.2435743291E-03      91   67    1        -0.6241874658E+00      0.3362917114E+01

    ------------------------------------------------
       NWT REQUIRED            3 OUTER ITERATIONS 
       AND A TOTAL OF         23 INNER ITERATIONS.
    ------------------------------------------------

 NO OUTPUT CONTROL FOR STRESS PERIOD    5   TIME STEP    4
 
 SOLVING FOR HEAD 
                                                   Max.-Head-Change                         Max.-Flux-Residual
  Residual-Control   Outer-Iter.   Inner-Iter.     Column Row Layer    Maximum-Head-Change  Column Row Layer    Maximum-Flux-Residual          L2-NORM 
          0                 1          10            81   46     1       0.1848106671E+01      81   46    1         0.5923656217E+05      0.1829151062E+06
          0                 2           9            81   46     1      -0.1681256518E+00      81   46    1        -0.5928713471E+04      0.1838512834E+05
          0                 3           4            78   45     2      -0.4588197775E-03      78   45    2        -0.1465493699E+02      0.2098413812E+02

    ------------------------------------------------
       NWT REQUIRED            3 OUTER ITERATIONS 
       AND A TOTAL OF         23 INNER ITERATIONS.
    ------------------------------------------------

 NO OUTPUT CONTROL FOR STRESS PERIOD    5   TIME STEP    5
 
 SOLVING FOR HEAD 
                                                   Max.-Head-Change                         Max.-Flux-Residual
  Residual-Control   Outer-Iter.   Inner-Iter.     Column Row Layer    Maximum-Head-Change  Column Row Layer    Maximum-Flux-Residual          L2-NORM 
          0                 1          10            81   46     1       0.1796005163E+01      81   46    1         0.5761487638E+05      0.1732459433E+06
          0                 2           9            81   46     1      -0.1633866817E+00      81   46    1        -0.5766500370E+04      0.1737028233E+05
          0                 3           4            80   45     1      -0.3041945977E-03      91   67    1        -0.5677083135E+00      0.3312484875E+01

    ------------------------------------------------
       NWT REQUIRED            3 OUTER ITERATIONS 
       AND A TOTAL OF         23 INNER ITERATIONS.
    ------------------------------------------------

 NO OUTPUT CONTROL FOR STRESS PERIOD    5   TIME STEP    6
 
 SOLVING FOR HEAD 
                                                   Max.-Head-Change                         Max.-Flux-Residual
  Residual-Control   Outer-Iter.   Inner-Iter.     Column Row Layer    Maximum-Head-Change  Column Row Layer    Maximum-Flux-Residual          L2-NORM 
          0                 1          10            81   46     1       0.1744078333E+01      81   46    1         0.5599118634E+05      0.1655434487E+06
          0                 2           9            81   46     1      -0.1586638115E+00      81   46    1        -0.5604008943E+04      0.1655926597E+05
          0                 3           4            80   45     1      -0.3313306774E-03      80   45    1        -0.5642561922E+00      0.3296369651E+01

    ------------------------------------------------
       NWT REQUIRED            3 OUTER ITERATIONS 
       AND A TOTAL OF         23 INNER ITERATIONS.
    ------------------------------------------------

 NO OUTPUT CONTROL FOR STRESS PERIOD    5   TIME STEP    7
 
 SOLVING FOR HEAD 
                                                   Max.-Head-Change                         Max.-Flux-Residual
  Residual-Control   Outer-Iter.   Inner-Iter.     Column Row Layer    Maximum-Head-Change  Column Row Layer    Maximum-Flux-Residual          L2-NORM 
          0                 1          10            81   46     1       0.1692527979E+01      81   46    1         0.5437288663E+05      0.1592600232E+06
          0                 2           9            81   46     1      -0.1548758117E+00      81   46    1        -0.5478782101E+04      0.1637076096E+05
          0                 3           4            58  101     1       0.4121774405E-02      58  101    1         0.1124707961E+03      0.1177067620E+03

    ------------------------------------------------
       NWT REQUIRED            3 OUTER ITERATIONS 
       AND A TOTAL OF         23 INNER ITERATIONS.
    ------------------------------------------------

 NO OUTPUT CONTROL FOR STRESS PERIOD    5   TIME STEP    8
 
 SOLVING FOR HEAD 
                                                   Max.-Head-Change                         Max.-Flux-Residual
  Residual-Control   Outer-Iter.   Inner-Iter.     Column Row Layer    Maximum-Head-Change  Column Row Layer    Maximum-Flux-Residual          L2-NORM 
          0                 1          10            81   46     1       0.1639297949E+01      81   46    1         0.5273536968E+05      0.1538726005E+06
          0                 2           9            81   46     1      -0.1487442832E+00      81   46    1        -0.5279426113E+04      0.1508108315E+05
          0                 3           4            80   45     1      -0.3146151135E-03      58  101    1         0.5408157110E+00      0.3314533250E+01

    ------------------------------------------------
       NWT REQUIRED            3 OUTER ITERATIONS 
       AND A TOTAL OF         23 INNER ITERATIONS.
    ------------------------------------------------

 NO OUTPUT CONTROL FOR STRESS PERIOD    5   TIME STEP    9
 
 SOLVING FOR HEAD 
                                                   Max.-Head-Change                         Max.-Flux-Residual
  Residual-Control   Outer-Iter.   Inner-Iter.     Column Row Layer    Maximum-Head-Change  Column Row Layer    Maximum-Flux-Residual          L2-NORM 
          0                 1          10            81   46     1       0.1589342769E+01      81   46    1         0.5112058783E+05      0.1496757038E+06
          0                 2           9            81   46     1      -0.1446102889E+00      81   46    1        -0.5117559598E+04      0.1497031808E+05
          0                 3           4            80   45     1      -0.3819125915E-03      80   45    1        -0.6511788564E+00      0.3309785405E+01

    ------------------------------------------------
       NWT REQUIRED            3 OUTER ITERATIONS 
       AND A TOTAL OF         23 INNER ITERATIONS.
    ------------------------------------------------

 NO OUTPUT CONTROL FOR STRESS PERIOD    5   TIME STEP   10
 
 SOLVING FOR HEAD 
                                                   Max.-Head-Change                         Max.-Flux-Residual
  Residual-Control   Outer-Iter.   Inner-Iter.     Column Row Layer    Maximum-Head-Change  Column Row Layer    Maximum-Flux-Residual          L2-NORM 
          0                 1          10            81   46     1       0.1540347819E+01      81   46    1         0.4954956798E+05      0.1462368795E+06
          0                 2           9            81   46     1      -0.1401482955E+00      81   46    1        -0.4960114940E+04      0.1462554099E+05
          0                 3           4            80   45     1      -0.3960290885E-03      80   45    1        -0.6754981549E+00      0.3307565364E+01

    ------------------------------------------------
       NWT REQUIRED            3 OUTER ITERATIONS 
       AND A TOTAL OF         23 INNER ITERATIONS.
    ------------------------------------------------

 NO OUTPUT CONTROL FOR STRESS PERIOD    5   TIME STEP   11
 
 SOLVING FOR HEAD 
                                                   Max.-Head-Change                         Max.-Flux-Residual
  Residual-Control   Outer-Iter.   Inner-Iter.     Column Row Layer    Maximum-Head-Change  Column Row Layer    Maximum-Flux-Residual          L2-NORM 
          0                 1          10            81   46     1       0.1492765518E+01      81   46    1         0.4802268054E+05      0.1432086365E+06
          0                 2           9            81   46     1      -0.1358151632E+00      81   46    1        -0.4807102309E+04      0.1433692416E+05
          0                 3           4            80   45     1      -0.4085969460E-03      80   45    1        -0.6971824411E+00      0.3445927699E+01

    ------------------------------------------------
       NWT REQUIRED            3 OUTER ITERATIONS 
       AND A TOTAL OF         23 INNER ITERATIONS.
    ------------------------------------------------

 OUTPUT CONTROL FOR STRESS PERIOD    5   TIME STEP   12
    SAVE BUDGET
 UBDSV1 SAVING "         STORAGE" ON UNIT  39 AT TIME STEP 12, STRESS PERIOD   5
 UBDSV2 SAVING "   CONSTANT HEAD" ON UNIT  39 AT TIME STEP 12, STRESS PERIOD   5
 UBDSV1 SAVING "FLOW RIGHT FACE " ON UNIT  39 AT TIME STEP 12, STRESS PERIOD   5
 UBDSV1 SAVING "FLOW FRONT FACE " ON UNIT  39 AT TIME STEP 12, STRESS PERIOD   5
 UBDSV1 SAVING "FLOW LOWER FACE " ON UNIT  39 AT TIME STEP 12, STRESS PERIOD   5
 UBDSV4 SAVING "           WELLS" ON UNIT  39 AT TIME STEP 12, STRESS PERIOD   5
 UBDSV3 SAVING "              ET" ON UNIT  39 AT TIME STEP 12, STRESS PERIOD   5
 UBDSV3 SAVING "        RECHARGE" ON UNIT  39 AT TIME STEP 12, STRESS PERIOD   5
1
  VOLUMETRIC BUDGET FOR ENTIRE MODEL AT END OF TIME STEP   12, STRESS PERIOD   5
  ------------------------------------------------------------------------------

     CUMULATIVE VOLUMES      L**3       RATES FOR THIS TIME STEP      L**3/T
     ------------------                 ------------------------

           IN:                                      IN:
           ---                                      ---
             STORAGE =  7794126336.0000               STORAGE =     5031086.5000
       CONSTANT HEAD =  2185642752.0000         CONSTANT HEAD =     1213879.7500
               WELLS =  2239249664.0000                 WELLS =     1225642.0000
                  ET =           0.0000                    ET =           0.0000
            RECHARGE = 20202797056.0000              RECHARGE =    11292591.0000

            TOTAL IN = 32421816320.0000              TOTAL IN =    18763200.0000

          OUT:                                     OUT:
          ----                                     ----
             STORAGE =  1892876032.0000               STORAGE =      590451.6250
       CONSTANT HEAD =  5833270784.0000         CONSTANT HEAD =     3301465.0000
               WELLS = 22005049344.0000                 WELLS =    13445562.0000
                  ET =  2690635520.0000                    ET =     1425731.6250
            RECHARGE =           0.0000              RECHARGE =           0.0000

           TOTAL OUT = 32421832704.0000             TOTAL OUT =    18763212.0000

            IN - OUT =      -16384.0000              IN - OUT =         -12.0000

 PERCENT DISCREPANCY =          -0.00     PERCENT DISCREPANCY =          -0.00






         TIME SUMMARY AT END OF TIME STEP   12 IN STRESS PERIOD    5
                    SECONDS     MINUTES      HOURS       DAYS        YEARS
                    -----------------------------------------------------------
   TIME STEP LENGTH 2.63520E+06  43920.      732.00      30.500     8.35044E-02
 STRESS PERIOD TIME 3.16224E+07 5.27040E+05  8784.0      366.00      1.0021    
         TOTAL TIME 1.57853E+08 2.63088E+06  43848.      1827.0      5.0021    
1
1
                            STRESS PERIOD NO.    6, LENGTH =   365.0000    
                            -----------------------------------------------

                              NUMBER OF TIME STEPS =    12

                               MULTIPLIER FOR DELT =     1.000

                            INITIAL TIME STEP SIZE =   30.41667    

    812 WELLS

 REUSING SURF FROM LAST STRESS PERIOD

 REUSING EVTR FROM LAST STRESS PERIOD

 REUSING EXDP FROM LAST STRESS PERIOD



                           RECHARGE
 READING ON UNIT   16 WITH FORMAT: (15F5.0)            


     63 TIME-VARIANT SPECIFIED-HEAD CELLS
 
 SOLVING FOR HEAD 
                                                   Max.-Head-Change                         Max.-Flux-Residual
  Residual-Control   Outer-Iter.   Inner-Iter.     Column Row Layer    Maximum-Head-Change  Column Row Layer    Maximum-Flux-Residual          L2-NORM 
          0                 1          11            88   51     3      -0.3889154311E+01      29   20    2        -0.1729927308E+06      0.5155143288E+06
          0                 2           9            88   51     3       0.3657077609E+00      60   61    1         0.1930538758E+05      0.5303052067E+05
          0                 3           4            88   50     3       0.1712235148E-01      88   50    3         0.9177191503E+02      0.1339676771E+03
          0                 4           3            88   51     3      -0.1400435201E-02      88   51    3        -0.6460306635E+01      0.6954193717E+01

    ------------------------------------------------
       NWT REQUIRED            4 OUTER ITERATIONS 
       AND A TOTAL OF         27 INNER ITERATIONS.
    ------------------------------------------------

 NO OUTPUT CONTROL FOR STRESS PERIOD    6   TIME STEP    1
 
 SOLVING FOR HEAD 
                                                   Max.-Head-Change                         Max.-Flux-Residual
  Residual-Control   Outer-Iter.   Inner-Iter.     Column Row Layer    Maximum-Head-Change  Column Row Layer    Maximum-Flux-Residual          L2-NORM 
          0                 1          11            42   32     1      -0.2067405163E+01      42   32    1        -0.1053518065E+06      0.3061661248E+06
          0                 2           9            42   32     1       0.1835572046E+00      42   32    1         0.1013982868E+05      0.3032687075E+05
          0                 3           4            82   53     1      -0.3155346750E-03      19   75    1         0.3633608088E+01      0.8556186949E+01

    ------------------------------------------------
       NWT REQUIRED            3 OUTER ITERATIONS 
       AND A TOTAL OF         24 INNER ITERATIONS.
    ------------------------------------------------

 NO OUTPUT CONTROL FOR STRESS PERIOD    6   TIME STEP    2
 
 SOLVING FOR HEAD 
                                                   Max.-Head-Change                         Max.-Flux-Residual
  Residual-Control   Outer-Iter.   Inner-Iter.     Column Row Layer    Maximum-Head-Change  Column Row Layer    Maximum-Flux-Residual          L2-NORM 
          0                 1          11            42   32     1      -0.1499314119E+01      42   32    1        -0.7339527671E+05      0.2269764937E+06
          0                 2           9            31   18     1      -0.2686329299E+00      42   32    1         0.7155042578E+04      0.2297493096E+05
          0                 3           4            31   18     1       0.2393931926E-01      31   18    1         0.3956935891E+03      0.4117116313E+03
          0                 4           2            31   18     1       0.4342787693E-04      31   18    1         0.6691562310E+00      0.7189279176E+00

    ------------------------------------------------
       NWT REQUIRED            4 OUTER ITERATIONS 
       AND A TOTAL OF         26 INNER ITERATIONS.
    ------------------------------------------------

 NO OUTPUT CONTROL FOR STRESS PERIOD    6   TIME STEP    3

 INTERPOLATION FOR HEAD OBS# 5691, ID 1179-6-115   CHANGED BECAUSE AT LEAST ONE
 NEIGHBORING CELL REQUIRED FOR INTERPOLATION IS DRY OR INACTIVE (OBS2BAS7SE)
 
 SOLVING FOR HEAD 
                                                   Max.-Head-Change                         Max.-Flux-Residual
  Residual-Control   Outer-Iter.   Inner-Iter.     Column Row Layer    Maximum-Head-Change  Column Row Layer    Maximum-Flux-Residual          L2-NORM 
          0                 1          10            42   32     1      -0.1131582586E+01      42   32    1        -0.5318338980E+05      0.1892557409E+06
          0                 2           9            81   45     1       0.1595153532E+00      81   45    1         0.5486928710E+04      0.1941798338E+05
          0                 3           3            80   45     3      -0.2022881036E-03      72   49    1        -0.4287109637E+01      0.7552168874E+01

    ------------------------------------------------
       NWT REQUIRED            3 OUTER ITERATIONS 
       AND A TOTAL OF         22 INNER ITERATIONS.
    ------------------------------------------------

 NO OUTPUT CONTROL FOR STRESS PERIOD    6   TIME STEP    4
 
 SOLVING FOR HEAD 
                                                   Max.-Head-Change                         Max.-Flux-Residual
  Residual-Control   Outer-Iter.   Inner-Iter.     Column Row Layer    Maximum-Head-Change  Column Row Layer    Maximum-Flux-Residual          L2-NORM 
          0                 1          10            81   45     1      -0.8971415088E+00      42   32    1        -0.4011926198E+05      0.1669780925E+06
          0                 2           9            81   45     1       0.8148424110E-01      42   32    1         0.3961860054E+04      0.1665446697E+05
          0                 3           3            82   53     1      -0.1593653944E-03      66    8    3         0.3209355435E+02      0.3230929727E+02

    ------------------------------------------------
       NWT REQUIRED            3 OUTER ITERATIONS 
       AND A TOTAL OF         22 INNER ITERATIONS.
    ------------------------------------------------

 NO OUTPUT CONTROL FOR STRESS PERIOD    6   TIME STEP    5
 
 SOLVING FOR HEAD 
                                                   Max.-Head-Change                         Max.-Flux-Residual
  Residual-Control   Outer-Iter.   Inner-Iter.     Column Row Layer    Maximum-Head-Change  Column Row Layer    Maximum-Flux-Residual          L2-NORM 
          0                 1          10            81   45     1      -0.7782401186E+00      42   32    1        -0.3142307153E+05      0.1521786875E+06
          0                 2           9            81   45     1       0.7072131165E-01      42   32    1         0.3113276255E+04      0.1520173728E+05
          0                 3           3            79   46     1      -0.1469668595E-03      66    8    3        -0.1478322071E+03      0.1478738886E+03

    ------------------------------------------------
       NWT REQUIRED            3 OUTER ITERATIONS 
       AND A TOTAL OF         22 INNER ITERATIONS.
    ------------------------------------------------

 NO OUTPUT CONTROL FOR STRESS PERIOD    6   TIME STEP    6
 
 SOLVING FOR HEAD 
                                                   Max.-Head-Change                         Max.-Flux-Residual
  Residual-Control   Outer-Iter.   Inner-Iter.     Column Row Layer    Maximum-Head-Change  Column Row Layer    Maximum-Flux-Residual          L2-NORM 
          0                 1          10            81   45     1      -0.6753994442E+00      42   32    1        -0.2544678352E+05      0.1417177831E+06
          0                 2           9            81   45     1       0.6137993833E-01      42   32    1         0.2526725371E+04      0.1416743804E+05
          0                 3           3            79   46     1      -0.1407127989E-03      66    8    3        -0.2881034726E+03      0.2881231960E+03

    ------------------------------------------------
       NWT REQUIRED            3 OUTER ITERATIONS 
       AND A TOTAL OF         22 INNER ITERATIONS.
    ------------------------------------------------

 NO OUTPUT CONTROL FOR STRESS PERIOD    6   TIME STEP    7
 
 SOLVING FOR HEAD 
                                                   Max.-Head-Change                         Max.-Flux-Residual
  Residual-Control   Outer-Iter.   Inner-Iter.     Column Row Layer    Maximum-Head-Change  Column Row Layer    Maximum-Flux-Residual          L2-NORM 
          0                 1          10            81   45     1      -0.5864475083E+00      42   32    1        -0.2120738515E+05      0.1339682368E+06
          0                 2           9            81   45     1       0.5329908784E-01      42   32    1         0.2108978791E+04      0.1339813093E+05
          0                 3           3            79   46     1      -0.1347827422E-03      66    8    3        -0.4185675313E+03      0.4185804086E+03

    ------------------------------------------------
       NWT REQUIRED            3 OUTER ITERATIONS 
       AND A TOTAL OF         22 INNER ITERATIONS.
    ------------------------------------------------

 NO OUTPUT CONTROL FOR STRESS PERIOD    6   TIME STEP    8
 
 SOLVING FOR HEAD 
                                                   Max.-Head-Change                         Max.-Flux-Residual
  Residual-Control   Outer-Iter.   Inner-Iter.     Column Row Layer    Maximum-Head-Change  Column Row Layer    Maximum-Flux-Residual          L2-NORM 
          0                 1          10            81   45     1      -0.5094815895E+00      42   32    1        -0.1810873907E+05      0.1280164166E+06
          0                 2           9            42   35     2       0.5190569916E-01      42   35    2         0.5295438584E+04      0.1416135683E+05
          0                 3           3            79   46     1      -0.1291543050E-03      66    8    3        -0.5420230099E+03      0.5420338885E+03

    ------------------------------------------------
       NWT REQUIRED            3 OUTER ITERATIONS 
       AND A TOTAL OF         22 INNER ITERATIONS.
    ------------------------------------------------

 NO OUTPUT CONTROL FOR STRESS PERIOD    6   TIME STEP    9

 INTERPOLATION FOR HEAD OBS# 1011, ID 2643-6-284   CHANGED BECAUSE AT LEAST ONE
 NEIGHBORING CELL REQUIRED FOR INTERPOLATION IS DRY OR INACTIVE (OBS2BAS7SE)
 
 SOLVING FOR HEAD 
                                                   Max.-Head-Change                         Max.-Flux-Residual
  Residual-Control   Outer-Iter.   Inner-Iter.     Column Row Layer    Maximum-Head-Change  Column Row Layer    Maximum-Flux-Residual          L2-NORM 
          0                 1          10            81   45     1      -0.4428641766E+00      42   32    1        -0.1577632393E+05      0.1232378824E+06
          0                 2           9            78   61     1      -0.3212388806E+00      19   74    2         0.1712833686E+04      0.1246587276E+05
          0                 3           4            78   61     1       0.2483846179E-01      66    8    3        -0.6603060775E+03      0.6618188177E+03
          0                 4           2            78   61     1       0.3374392494E-03      66    8    3        -0.6598352970E+03      0.6598356814E+03

    ------------------------------------------------
       NWT REQUIRED            4 OUTER ITERATIONS 
       AND A TOTAL OF         25 INNER ITERATIONS.
    ------------------------------------------------

 NO OUTPUT CONTROL FOR STRESS PERIOD    6   TIME STEP   10
 
 SOLVING FOR HEAD 
                                                   Max.-Head-Change                         Max.-Flux-Residual
  Residual-Control   Outer-Iter.   Inner-Iter.     Column Row Layer    Maximum-Head-Change  Column Row Layer    Maximum-Flux-Residual          L2-NORM 
          0                 1          10            81   46     1      -0.4029256580E+00      42   32    1        -0.1398402358E+05      0.1195211648E+06
          0                 2           9            58   79     2       0.4479035964E-01      58   79    2         0.1809151056E+04      0.1211721711E+05
          0                 3           4            58   79     1      -0.8116851736E-02      66    8    3        -0.7742626427E+03      0.8885187736E+03

    ------------------------------------------------
       NWT REQUIRED            3 OUTER ITERATIONS 
       AND A TOTAL OF         23 INNER ITERATIONS.
    ------------------------------------------------

 NO OUTPUT CONTROL FOR STRESS PERIOD    6   TIME STEP   11
 
 SOLVING FOR HEAD 
                                                   Max.-Head-Change                         Max.-Flux-Residual
  Residual-Control   Outer-Iter.   Inner-Iter.     Column Row Layer    Maximum-Head-Change  Column Row Layer    Maximum-Flux-Residual          L2-NORM 
          0                 1          10            81   46     1      -0.3889165596E+00      81   46    1        -0.1259731575E+05      0.1163914207E+06
          0                 2           9            58   79     1      -0.7141142848E-01      58   79    1        -0.1300456694E+04      0.1174140166E+05
          0                 3           4            58   79     1       0.6377843669E-02      66    8    3        -0.8852694658E+03      0.8949510413E+03
          0                 4           2            34   63     1      -0.4900645780E-04      66    8    3        -0.8846224579E+03      0.8846252708E+03
          0                 5           2            66    8     3      -0.2171687277E-04      66    8    3        -0.8839813493E+03      0.8839815326E+03
          0                 6           2            66    8     3      -0.2170102974E-04      66    8    3        -0.8833388290E+03      0.8833389912E+03
          0                 7           2            66    8     3      -0.2168513168E-04      66    8    3        -0.8826941605E+03      0.8826943224E+03
          0                 8           2            66    8     3      -0.2166917960E-04      66    8    3        -0.8820472670E+03      0.8820474287E+03
          0                 9           2            66    8     3      -0.2165317149E-04      66    8    3        -0.8813981464E+03      0.8813983080E+03
          0                10           2            66    8     3      -0.2163710986E-04      66    8    3        -0.8807468055E+03      0.8807469670E+03
                                                   Max.-Head-Change                         Max.-Flux-Residual
  Residual-Control   Outer-Iter.   Inner-Iter.     Column Row Layer    Maximum-Head-Change  Column Row Layer    Maximum-Flux-Residual          L2-NORM 
          0                11           4            66    8     3      -0.3208846406E-01      66    8    3        -0.8800941047E+03      0.8800942660E+03
          0                12           3            66    8     3       0.2916222656E-02      66    8    3         0.1055606818E+03      0.1147825999E+03

    ------------------------------------------------
       NWT REQUIRED           12 OUTER ITERATIONS 
       AND A TOTAL OF         44 INNER ITERATIONS.
    ------------------------------------------------

 OUTPUT CONTROL FOR STRESS PERIOD    6   TIME STEP   12
    SAVE BUDGET
    SAVE HEAD FOR LAYERS:   1  2  3
 UBDSV1 SAVING "         STORAGE" ON UNIT  39 AT TIME STEP 12, STRESS PERIOD   6
 UBDSV2 SAVING "   CONSTANT HEAD" ON UNIT  39 AT TIME STEP 12, STRESS PERIOD   6
 UBDSV1 SAVING "FLOW RIGHT FACE " ON UNIT  39 AT TIME STEP 12, STRESS PERIOD   6
 UBDSV1 SAVING "FLOW FRONT FACE " ON UNIT  39 AT TIME STEP 12, STRESS PERIOD   6
 UBDSV1 SAVING "FLOW LOWER FACE " ON UNIT  39 AT TIME STEP 12, STRESS PERIOD   6
 UBDSV4 SAVING "           WELLS" ON UNIT  39 AT TIME STEP 12, STRESS PERIOD   6
 UBDSV3 SAVING "              ET" ON UNIT  39 AT TIME STEP 12, STRESS PERIOD   6
 UBDSV3 SAVING "        RECHARGE" ON UNIT  39 AT TIME STEP 12, STRESS PERIOD   6

 HEAD WILL BE SAVED ON UNIT   31 AT END OF TIME STEP   12, STRESS PERIOD    6
1
  VOLUMETRIC BUDGET FOR ENTIRE MODEL AT END OF TIME STEP   12, STRESS PERIOD   6
  ------------------------------------------------------------------------------

     CUMULATIVE VOLUMES      L**3       RATES FOR THIS TIME STEP      L**3/T
     ------------------                 ------------------------

           IN:                                      IN:
           ---                                      ---
             STORAGE =  9581706240.0000               STORAGE =     4449241.5000
       CONSTANT HEAD =  2620892416.0000         CONSTANT HEAD =     1186611.5000
               WELLS =  2686609664.0000                 WELLS =     1225642.0000
                  ET =           0.0000                    ET =           0.0000
            RECHARGE = 25174079488.0000              RECHARGE =    13619969.0000

            TOTAL IN = 40063287296.0000              TOTAL IN =    20481464.0000

          OUT:                                     OUT:
          ----                                     ----
             STORAGE =  2164060416.0000               STORAGE =      292944.4688
       CONSTANT HEAD =  7030426112.0000         CONSTANT HEAD =     3312793.7500
               WELLS = 27675617280.0000                 WELLS =    15535810.0000
                  ET =  3193293568.0000                    ET =     1339928.5000
            RECHARGE =           0.0000              RECHARGE =           0.0000

           TOTAL OUT = 40063397888.0000             TOTAL OUT =    20481476.0000

            IN - OUT =     -110592.0000              IN - OUT =         -12.0000

 PERCENT DISCREPANCY =          -0.00     PERCENT DISCREPANCY =          -0.00






         TIME SUMMARY AT END OF TIME STEP   12 IN STRESS PERIOD    6
                    SECONDS     MINUTES      HOURS       DAYS        YEARS
                    -----------------------------------------------------------
   TIME STEP LENGTH 2.62800E+06  43800.      730.00      30.417     8.32763E-02
 STRESS PERIOD TIME 3.15360E+07 5.25600E+05  8760.0      365.00     0.99932    
         TOTAL TIME 1.89389E+08 3.15648E+06  52608.      2192.0      6.0014    
1
1
                            STRESS PERIOD NO.    7, LENGTH =   365.0000    
                            -----------------------------------------------

                              NUMBER OF TIME STEPS =    12

                               MULTIPLIER FOR DELT =     1.000

                            INITIAL TIME STEP SIZE =   30.41667    

    823 WELLS

 REUSING SURF FROM LAST STRESS PERIOD

 REUSING EVTR FROM LAST STRESS PERIOD

 REUSING EXDP FROM LAST STRESS PERIOD



                           RECHARGE
 READING ON UNIT   16 WITH FORMAT: (15F5.0)            


     63 TIME-VARIANT SPECIFIED-HEAD CELLS
 
 SOLVING FOR HEAD 
                                                   Max.-Head-Change                         Max.-Flux-Residual
  Residual-Control   Outer-Iter.   Inner-Iter.     Column Row Layer    Maximum-Head-Change  Column Row Layer    Maximum-Flux-Residual          L2-NORM 
          0                 1          11            92   77     2       0.5390455670E+01      59   49    1        -0.1420837715E+06      0.5134540718E+06
          0                 2          10            19    5     2       0.2759008648E+00      59   49    1         0.1336609537E+05      0.5136730202E+05
          0                 3           4            92   77     2       0.5113522091E-02      35   23    1        -0.2863652197E+02      0.5999444191E+02

    ------------------------------------------------
       NWT REQUIRED            3 OUTER ITERATIONS 
       AND A TOTAL OF         25 INNER ITERATIONS.
    ------------------------------------------------

 NO OUTPUT CONTROL FOR STRESS PERIOD    7   TIME STEP    1
 
 SOLVING FOR HEAD 
                                                   Max.-Head-Change                         Max.-Flux-Residual
  Residual-Control   Outer-Iter.   Inner-Iter.     Column Row Layer    Maximum-Head-Change  Column Row Layer    Maximum-Flux-Residual          L2-NORM 
          0                 1          11            70   47     1       0.1621124244E+01      59   49    1        -0.6649360155E+05      0.3222528421E+06
          0                 2           9            70   47     1      -0.1479284017E+00      67   47    1        -0.7326000871E+04      0.3248369521E+05
          0                 3           4            88   67     1      -0.1355547548E-03      59   49    1        -0.1705921866E+01      0.4818097710E+01

    ------------------------------------------------
       NWT REQUIRED            3 OUTER ITERATIONS 
       AND A TOTAL OF         24 INNER ITERATIONS.
    ------------------------------------------------

 NO OUTPUT CONTROL FOR STRESS PERIOD    7   TIME STEP    2
 
 SOLVING FOR HEAD 
                                                   Max.-Head-Change                         Max.-Flux-Residual
  Residual-Control   Outer-Iter.   Inner-Iter.     Column Row Layer    Maximum-Head-Change  Column Row Layer    Maximum-Flux-Residual          L2-NORM 
          0                 1          10            70   47     1       0.1415796738E+01      70   47    1         0.5744390398E+05      0.2586823942E+06
          0                 2           9            57  102     2      -0.1360873248E+00      70   47    1        -0.5766413039E+04      0.2594066623E+05
          0                 3           4            57  102     2       0.1185671342E-01      57  102    2         0.9401212162E+02      0.1012736055E+03
          0                 4           2            57  102     2       0.4544268391E-04      57  102    2         0.3335214965E+00      0.3607746237E+00

    ------------------------------------------------
       NWT REQUIRED            4 OUTER ITERATIONS 
       AND A TOTAL OF         25 INNER ITERATIONS.
    ------------------------------------------------

 NO OUTPUT CONTROL FOR STRESS PERIOD    7   TIME STEP    3
 
 SOLVING FOR HEAD 
                                                   Max.-Head-Change                         Max.-Flux-Residual
  Residual-Control   Outer-Iter.   Inner-Iter.     Column Row Layer    Maximum-Head-Change  Column Row Layer    Maximum-Flux-Residual          L2-NORM 
          0                 1          10            70   47     1       0.1242046777E+01      70   47    1         0.5017171242E+05      0.2250396886E+06
          0                 2           9            70   47     1      -0.1128036343E+00      70   47    1        -0.5032924168E+04      0.2252370971E+05
          0                 3           4            15   33     3       0.2263973427E-03      16   33    3        -0.1092734264E+02      0.1847369687E+02

    ------------------------------------------------
       NWT REQUIRED            3 OUTER ITERATIONS 
       AND A TOTAL OF         23 INNER ITERATIONS.
    ------------------------------------------------

 NO OUTPUT CONTROL FOR STRESS PERIOD    7   TIME STEP    4
 
 SOLVING FOR HEAD 
                                                   Max.-Head-Change                         Max.-Flux-Residual
  Residual-Control   Outer-Iter.   Inner-Iter.     Column Row Layer    Maximum-Head-Change  Column Row Layer    Maximum-Flux-Residual          L2-NORM 
          0                 1          10            70   47     1       0.1096005537E+01      70   47    1         0.4403292495E+05      0.2034995779E+06
          0                 2           9            70   47     1      -0.9985956768E-01      70   47    1        -0.4414594039E+04      0.2036612565E+05
          0                 3           4            88   67     1      -0.1276444624E-03      45   28    1         0.5456666872E+00      0.3450689103E+01

    ------------------------------------------------
       NWT REQUIRED            3 OUTER ITERATIONS 
       AND A TOTAL OF         23 INNER ITERATIONS.
    ------------------------------------------------

 NO OUTPUT CONTROL FOR STRESS PERIOD    7   TIME STEP    5
 
 SOLVING FOR HEAD 
                                                   Max.-Head-Change                         Max.-Flux-Residual
  Residual-Control   Outer-Iter.   Inner-Iter.     Column Row Layer    Maximum-Head-Change  Column Row Layer    Maximum-Flux-Residual          L2-NORM 
          0                 1          10            70   47     1       0.9711598110E+00      70   47    1         0.3884327272E+05      0.1882796105E+06
          0                 2           9            70   47     1      -0.8850985028E-01      70   47    1        -0.3892460671E+04      0.1895246948E+05
          0                 3           4            80   45     1      -0.1296136534E-03      45   28    1         0.5515435711E+00      0.3439942503E+01

    ------------------------------------------------
       NWT REQUIRED            3 OUTER ITERATIONS 
       AND A TOTAL OF         23 INNER ITERATIONS.
    ------------------------------------------------

 NO OUTPUT CONTROL FOR STRESS PERIOD    7   TIME STEP    6
 
 SOLVING FOR HEAD 
                                                   Max.-Head-Change                         Max.-Flux-Residual
  Residual-Control   Outer-Iter.   Inner-Iter.     Column Row Layer    Maximum-Head-Change  Column Row Layer    Maximum-Flux-Residual          L2-NORM 
          0                 1          10            71   47     1       0.8927162488E+00      70   47    1         0.3441786148E+05      0.1768670425E+06
          0                 2           9            71   47     1      -0.8127703322E-01      70   47    1        -0.3447679171E+04      0.1769064348E+05
          0                 3           4            80   45     1      -0.1322358469E-03      45   28    1         0.5534989312E+00      0.3441253888E+01

    ------------------------------------------------
       NWT REQUIRED            3 OUTER ITERATIONS 
       AND A TOTAL OF         23 INNER ITERATIONS.
    ------------------------------------------------

 NO OUTPUT CONTROL FOR STRESS PERIOD    7   TIME STEP    7
 
 SOLVING FOR HEAD 
                                                   Max.-Head-Change                         Max.-Flux-Residual
  Residual-Control   Outer-Iter.   Inner-Iter.     Column Row Layer    Maximum-Head-Change  Column Row Layer    Maximum-Flux-Residual          L2-NORM 
          0                 1          10            71   47     1       0.8267533941E+00      71   47    1         0.3163640826E+05      0.1680160373E+06
          0                 2           9            71   47     1      -0.7526803134E-01      71   47    1        -0.3169691262E+04      0.1689774537E+05
          0                 3           4            80   45     1      -0.1341848752E-03      45   28    1         0.5527902544E+00      0.3463085521E+01

    ------------------------------------------------
       NWT REQUIRED            3 OUTER ITERATIONS 
       AND A TOTAL OF         23 INNER ITERATIONS.
    ------------------------------------------------

 NO OUTPUT CONTROL FOR STRESS PERIOD    7   TIME STEP    8
 
 SOLVING FOR HEAD 
                                                   Max.-Head-Change                         Max.-Flux-Residual
  Residual-Control   Outer-Iter.   Inner-Iter.     Column Row Layer    Maximum-Head-Change  Column Row Layer    Maximum-Flux-Residual          L2-NORM 
          0                 1          10            71   47     1       0.7660903358E+00      71   47    1         0.2929905291E+05      0.1609758318E+06
          0                 2           9            71   47     1      -0.6974093972E-01      71   47    1        -0.2935305316E+04      0.1621214814E+05
          0                 3           4            49   33     1       0.4511394105E-02      49   33    1         0.1915806865E+03      0.2047373873E+03

    ------------------------------------------------
       NWT REQUIRED            3 OUTER ITERATIONS 
       AND A TOTAL OF         23 INNER ITERATIONS.
    ------------------------------------------------

 NO OUTPUT CONTROL FOR STRESS PERIOD    7   TIME STEP    9
 
 SOLVING FOR HEAD 
                                                   Max.-Head-Change                         Max.-Flux-Residual
  Residual-Control   Outer-Iter.   Inner-Iter.     Column Row Layer    Maximum-Head-Change  Column Row Layer    Maximum-Flux-Residual          L2-NORM 
          0                 1          10            71   47     1       0.7103695693E+00      71   47    1         0.2714951205E+05      0.1552740534E+06
          0                 2           9            83   45     2       0.9919141366E-01      66   46    1        -0.3253865367E+04      0.1584292388E+05
          0                 3           4            83   45     2      -0.9017591147E-02      83   45    2        -0.5969748313E+02      0.6195496343E+02

    ------------------------------------------------
       NWT REQUIRED            3 OUTER ITERATIONS 
       AND A TOTAL OF         23 INNER ITERATIONS.
    ------------------------------------------------

 NO OUTPUT CONTROL FOR STRESS PERIOD    7   TIME STEP   10

 INTERPOLATION FOR HEAD OBS# 3772, ID 1405-7-308   CHANGED BECAUSE AT LEAST ONE
 NEIGHBORING CELL REQUIRED FOR INTERPOLATION IS DRY OR INACTIVE (OBS2BAS7SE)
 
 SOLVING FOR HEAD 
                                                   Max.-Head-Change                         Max.-Flux-Residual
  Residual-Control   Outer-Iter.   Inner-Iter.     Column Row Layer    Maximum-Head-Change  Column Row Layer    Maximum-Flux-Residual          L2-NORM 
          0                 1          10            71   47     1       0.6582355672E+00      71   47    1         0.2516677501E+05      0.1504889068E+06
          0                 2           9            43   23     2      -0.1139984564E+00      71   47    1        -0.2520976833E+04      0.1505278024E+05
          0                 3           4            43   23     2       0.7800823893E-02      43   23    2         0.9712386963E+01      0.1072247938E+02

    ------------------------------------------------
       NWT REQUIRED            3 OUTER ITERATIONS 
       AND A TOTAL OF         23 INNER ITERATIONS.
    ------------------------------------------------

 NO OUTPUT CONTROL FOR STRESS PERIOD    7   TIME STEP   11

 INTERPOLATION FOR HEAD OBS#  880, ID 2758-7-344   CHANGED BECAUSE AT LEAST ONE
 NEIGHBORING CELL REQUIRED FOR INTERPOLATION IS DRY OR INACTIVE (OBS2BAS7SE)

 INTERPOLATION FOR HEAD OBS# 6996, ID 683-7-360    CHANGED BECAUSE AT LEAST ONE
 NEIGHBORING CELL REQUIRED FOR INTERPOLATION IS DRY OR INACTIVE (OBS2BAS7SE)
 
 SOLVING FOR HEAD 
                                                   Max.-Head-Change                         Max.-Flux-Residual
  Residual-Control   Outer-Iter.   Inner-Iter.     Column Row Layer    Maximum-Head-Change  Column Row Layer    Maximum-Flux-Residual          L2-NORM 
          0                 1          10            71   47     1       0.6103527083E+00      71   47    1         0.2332752549E+05      0.1464139550E+06
          0                 2           9            71   47     1      -0.5555374463E-01      71   47    1        -0.2336539346E+04      0.1464623466E+05
          0                 3           4            80   45     1      -0.1374833965E-03      42   35    1         0.5585416555E+00      0.3494109329E+01

    ------------------------------------------------
       NWT REQUIRED            3 OUTER ITERATIONS 
       AND A TOTAL OF         23 INNER ITERATIONS.
    ------------------------------------------------

 OUTPUT CONTROL FOR STRESS PERIOD    7   TIME STEP   12
    SAVE BUDGET
 UBDSV1 SAVING "         STORAGE" ON UNIT  39 AT TIME STEP 12, STRESS PERIOD   7
 UBDSV2 SAVING "   CONSTANT HEAD" ON UNIT  39 AT TIME STEP 12, STRESS PERIOD   7
 UBDSV1 SAVING "FLOW RIGHT FACE " ON UNIT  39 AT TIME STEP 12, STRESS PERIOD   7
 UBDSV1 SAVING "FLOW FRONT FACE " ON UNIT  39 AT TIME STEP 12, STRESS PERIOD   7
 UBDSV1 SAVING "FLOW LOWER FACE " ON UNIT  39 AT TIME STEP 12, STRESS PERIOD   7
 UBDSV4 SAVING "           WELLS" ON UNIT  39 AT TIME STEP 12, STRESS PERIOD   7
 UBDSV3 SAVING "              ET" ON UNIT  39 AT TIME STEP 12, STRESS PERIOD   7
 UBDSV3 SAVING "        RECHARGE" ON UNIT  39 AT TIME STEP 12, STRESS PERIOD   7
1
  VOLUMETRIC BUDGET FOR ENTIRE MODEL AT END OF TIME STEP   12, STRESS PERIOD   7
  ------------------------------------------------------------------------------

     CUMULATIVE VOLUMES      L**3       RATES FOR THIS TIME STEP      L**3/T
     ------------------                 ------------------------

           IN:                                      IN:
           ---                                      ---
             STORAGE = 11550817280.0000               STORAGE =     5147067.5000
       CONSTANT HEAD =  3044108544.0000         CONSTANT HEAD =     1144421.1250
               WELLS =  3133969664.0000                 WELLS =     1225642.0000
                  ET =           0.0000                    ET =           0.0000
            RECHARGE = 30530394112.0000              RECHARGE =    14674819.0000

            TOTAL IN = 48259293184.0000              TOTAL IN =    22191950.0000

          OUT:                                     OUT:
          ----                                     ----
             STORAGE =  2565632512.0000               STORAGE =      740786.6250
       CONSTANT HEAD =  8238946304.0000         CONSTANT HEAD =     3315222.7500
               WELLS = 33699096576.0000                 WELLS =    16502659.0000
                  ET =  3755733248.0000                    ET =     1633290.5000
            RECHARGE =           0.0000              RECHARGE =           0.0000

           TOTAL OUT = 48259411968.0000             TOTAL OUT =    22191958.0000

            IN - OUT =     -118784.0000              IN - OUT =          -8.0000

 PERCENT DISCREPANCY =          -0.00     PERCENT DISCREPANCY =          -0.00






         TIME SUMMARY AT END OF TIME STEP   12 IN STRESS PERIOD    7
                    SECONDS     MINUTES      HOURS       DAYS        YEARS
                    -----------------------------------------------------------
   TIME STEP LENGTH 2.62800E+06  43800.      730.00      30.417     8.32763E-02
 STRESS PERIOD TIME 3.15360E+07 5.25600E+05  8760.0      365.00     0.99932    
         TOTAL TIME 2.20925E+08 3.68208E+06  61368.      2557.0      7.0007    
1
1
                            STRESS PERIOD NO.    8, LENGTH =   365.0000    
                            -----------------------------------------------

                              NUMBER OF TIME STEPS =    12

                               MULTIPLIER FOR DELT =     1.000

                            INITIAL TIME STEP SIZE =   30.41667    

    891 WELLS

 REUSING SURF FROM LAST STRESS PERIOD

 REUSING EVTR FROM LAST STRESS PERIOD

 REUSING EXDP FROM LAST STRESS PERIOD



                           RECHARGE
 READING ON UNIT   16 WITH FORMAT: (15F5.0)            


     63 TIME-VARIANT SPECIFIED-HEAD CELLS
 
 SOLVING FOR HEAD 
                                                   Max.-Head-Change                         Max.-Flux-Residual
  Residual-Control   Outer-Iter.   Inner-Iter.     Column Row Layer    Maximum-Head-Change  Column Row Layer    Maximum-Flux-Residual          L2-NORM 
          0                 1          11            80   47     3      -0.1853701475E+02      24   22    2        -0.3873100144E+06      0.9210284577E+06
          0                 2          10            80   47     3       0.1687605922E+01      24   22    2         0.3873100205E+05      0.9119425260E+05
          0                 3           6            92   77     2       0.2441552167E-01      60  106    1         0.1132642795E+03      0.2232650878E+03
          0                 4           4            92   77     2       0.1299451407E-02      63   85    2         0.7777452132E+01      0.8310529293E+01

    ------------------------------------------------
       NWT REQUIRED            4 OUTER ITERATIONS 
       AND A TOTAL OF         31 INNER ITERATIONS.
    ------------------------------------------------

 NO OUTPUT CONTROL FOR STRESS PERIOD    8   TIME STEP    1
 
 SOLVING FOR HEAD 
                                                   Max.-Head-Change                         Max.-Flux-Residual
  Residual-Control   Outer-Iter.   Inner-Iter.     Column Row Layer    Maximum-Head-Change  Column Row Layer    Maximum-Flux-Residual          L2-NORM 
          0                 1          11            80   47     3      -0.5245886493E+01      57   44    1        -0.1050912510E+06      0.5024987587E+06
          0                 2          10            80   47     3       0.4554058252E+00      57   44    1         0.1021302271E+05      0.4998773630E+05
          0                 3           4            25    9     1       0.1569403643E-02      25    9    1         0.2049350140E+02      0.2752346010E+02

    ------------------------------------------------
       NWT REQUIRED            3 OUTER ITERATIONS 
       AND A TOTAL OF         25 INNER ITERATIONS.
    ------------------------------------------------

 NO OUTPUT CONTROL FOR STRESS PERIOD    8   TIME STEP    2
 
 SOLVING FOR HEAD 
                                                   Max.-Head-Change                         Max.-Flux-Residual
  Residual-Control   Outer-Iter.   Inner-Iter.     Column Row Layer    Maximum-Head-Change  Column Row Layer    Maximum-Flux-Residual          L2-NORM 
          0                 1          11            81   46     1      -0.2639466366E+01      81   46    1        -0.8489957754E+05      0.3892913797E+06
          0                 2          10            81   46     1       0.2396991575E+00      81   46    1         0.8478925617E+04      0.3893451237E+05
          0                 3           4            86   50     1       0.1341347591E-02      86   50    1         0.6578561321E+02      0.6691993445E+02

    ------------------------------------------------
       NWT REQUIRED            3 OUTER ITERATIONS 
       AND A TOTAL OF         25 INNER ITERATIONS.
    ------------------------------------------------

 NO OUTPUT CONTROL FOR STRESS PERIOD    8   TIME STEP    3
 
 SOLVING FOR HEAD 
                                                   Max.-Head-Change                         Max.-Flux-Residual
  Residual-Control   Outer-Iter.   Inner-Iter.     Column Row Layer    Maximum-Head-Change  Column Row Layer    Maximum-Flux-Residual          L2-NORM 
          0                 1          11            81   46     1      -0.2562606280E+01      81   46    1        -0.8252623941E+05      0.3414059921E+06
          0                 2           9            81   46     1       0.2327205903E+00      81   46    1         0.8241890418E+04      0.3407851619E+05
          0                 3           5            92   77     2       0.3063935114E-03      60   62    1        -0.3263592094E+02      0.3772961545E+02

    ------------------------------------------------
       NWT REQUIRED            3 OUTER ITERATIONS 
       AND A TOTAL OF         25 INNER ITERATIONS.
    ------------------------------------------------

 NO OUTPUT CONTROL FOR STRESS PERIOD    8   TIME STEP    4
 
 SOLVING FOR HEAD 
                                                   Max.-Head-Change                         Max.-Flux-Residual
  Residual-Control   Outer-Iter.   Inner-Iter.     Column Row Layer    Maximum-Head-Change  Column Row Layer    Maximum-Flux-Residual          L2-NORM 
          0                 1          11            81   46     1      -0.2486297733E+01      81   46    1        -0.8012181727E+05      0.3141291934E+06
          0                 2           9            81   46     1       0.3523211652E+00      81   46    1         0.1363380154E+05      0.3319755651E+05
          0                 3           6            18   22     2       0.2234522418E-02      18   22    2         0.1200569536E+03      0.1201803854E+03

    ------------------------------------------------
       NWT REQUIRED            3 OUTER ITERATIONS 
       AND A TOTAL OF         26 INNER ITERATIONS.
    ------------------------------------------------

 NO OUTPUT CONTROL FOR STRESS PERIOD    8   TIME STEP    5
 
 SOLVING FOR HEAD 
                                                   Max.-Head-Change                         Max.-Flux-Residual
  Residual-Control   Outer-Iter.   Inner-Iter.     Column Row Layer    Maximum-Head-Change  Column Row Layer    Maximum-Flux-Residual          L2-NORM 
          0                 1          11            81   46     1      -0.2094080959E+01      81   46    1        -0.7338383200E+05      0.2950294305E+06
          0                 2           9            81   46     1       0.1902207393E+00      81   46    1         0.7331259226E+04      0.2966008462E+05
          0                 3           4            80   45     1       0.3226564076E-03      85   48    2        -0.2442154071E+01      0.6337149367E+01

    ------------------------------------------------
       NWT REQUIRED            3 OUTER ITERATIONS 
       AND A TOTAL OF         24 INNER ITERATIONS.
    ------------------------------------------------

 NO OUTPUT CONTROL FOR STRESS PERIOD    8   TIME STEP    6
 
 SOLVING FOR HEAD 
                                                   Max.-Head-Change                         Max.-Flux-Residual
  Residual-Control   Outer-Iter.   Inner-Iter.     Column Row Layer    Maximum-Head-Change  Column Row Layer    Maximum-Flux-Residual          L2-NORM 
          0                 1          11            81   46     1      -0.1868944062E+01      81   46    1        -0.6546956222E+05      0.2806930803E+06
          0                 2           9            81   46     1       0.1697851945E+00      81   46    1         0.6541332373E+04      0.2803565614E+05
          0                 3           4            80   45     1       0.3336681874E-03      42   35    1         0.1115533829E+01      0.5687369425E+01

    ------------------------------------------------
       NWT REQUIRED            3 OUTER ITERATIONS 
       AND A TOTAL OF         24 INNER ITERATIONS.
    ------------------------------------------------

 NO OUTPUT CONTROL FOR STRESS PERIOD    8   TIME STEP    7

 INTERPOLATION FOR HEAD OBS#  634, ID 3016-8-222   CHANGED BECAUSE AT LEAST ONE
 NEIGHBORING CELL REQUIRED FOR INTERPOLATION IS DRY OR INACTIVE (OBS2BAS7SE)
 
 SOLVING FOR HEAD 
                                                   Max.-Head-Change                         Max.-Flux-Residual
  Residual-Control   Outer-Iter.   Inner-Iter.     Column Row Layer    Maximum-Head-Change  Column Row Layer    Maximum-Flux-Residual          L2-NORM 
          0                 1          11            81   46     1      -0.1668663894E+01      81   46    1        -0.5842966786E+05      0.2698399759E+06
          0                 2           9            58   96     2      -0.2723919311E+00      81   46    1         0.5811069504E+04      0.2704967563E+05
          0                 3           5            58   96     2       0.2385146091E-01      58   96    2         0.2060222727E+03      0.2119495739E+03
          0                 4           2            58   96     2       0.8014093486E-04      58   96    2         0.6602542736E+00      0.6876339699E+00

    ------------------------------------------------
       NWT REQUIRED            4 OUTER ITERATIONS 
       AND A TOTAL OF         27 INNER ITERATIONS.
    ------------------------------------------------

 NO OUTPUT CONTROL FOR STRESS PERIOD    8   TIME STEP    8
 
 SOLVING FOR HEAD 
                                                   Max.-Head-Change                         Max.-Flux-Residual
  Residual-Control   Outer-Iter.   Inner-Iter.     Column Row Layer    Maximum-Head-Change  Column Row Layer    Maximum-Flux-Residual          L2-NORM 
          0                 1          11            81   46     1      -0.1492217062E+01      81   46    1        -0.5218724572E+05      0.2614007340E+06
          0                 2           9            81   46     1       0.1356038419E+00      81   46    1         0.5216282475E+04      0.2636488332E+05
          0                 3           5            15   34     2       0.6434276400E-02      15   34    2         0.1379348119E+03      0.1772966745E+03

    ------------------------------------------------
       NWT REQUIRED            3 OUTER ITERATIONS 
       AND A TOTAL OF         25 INNER ITERATIONS.
    ------------------------------------------------

 NO OUTPUT CONTROL FOR STRESS PERIOD    8   TIME STEP    9
 
 SOLVING FOR HEAD 
                                                   Max.-Head-Change                         Max.-Flux-Residual
  Residual-Control   Outer-Iter.   Inner-Iter.     Column Row Layer    Maximum-Head-Change  Column Row Layer    Maximum-Flux-Residual          L2-NORM 
          0                 1          11            81   46     1      -0.1334400396E+01      81   46    1        -0.4664950262E+05      0.2546768322E+06
          0                 2           9            81   46     1       0.1212669774E+00      81   46    1         0.4662988308E+04      0.2547595162E+05
          0                 3           5            59   86     1      -0.2762573474E-01      59   86    1        -0.1460796269E+04      0.1460839611E+04
          0                 4           3            59   86     1      -0.2487503557E-02      59   86    1        -0.1315064058E+03      0.1315094461E+03

    ------------------------------------------------
       NWT REQUIRED            4 OUTER ITERATIONS 
       AND A TOTAL OF         28 INNER ITERATIONS.
    ------------------------------------------------

 NO OUTPUT CONTROL FOR STRESS PERIOD    8   TIME STEP   10
 
 SOLVING FOR HEAD 
                                                   Max.-Head-Change                         Max.-Flux-Residual
  Residual-Control   Outer-Iter.   Inner-Iter.     Column Row Layer    Maximum-Head-Change  Column Row Layer    Maximum-Flux-Residual          L2-NORM 
          0                 1          11            81   46     1      -0.1193763429E+01      81   46    1        -0.4171535999E+05      0.2491623903E+06
          0                 2           9            81   46     1       0.1084898719E+00      81   46    1         0.4169957978E+04      0.2490884107E+05
          0                 3           4            59   86     1       0.5100884665E-02      59   86    1         0.9884035742E+02      0.9982557005E+02

    ------------------------------------------------
       NWT REQUIRED            3 OUTER ITERATIONS 
       AND A TOTAL OF         24 INNER ITERATIONS.
    ------------------------------------------------

 NO OUTPUT CONTROL FOR STRESS PERIOD    8   TIME STEP   11
 
 SOLVING FOR HEAD 
                                                   Max.-Head-Change                         Max.-Flux-Residual
  Residual-Control   Outer-Iter.   Inner-Iter.     Column Row Layer    Maximum-Head-Change  Column Row Layer    Maximum-Flux-Residual          L2-NORM 
          0                 1          11            81   46     1      -0.1068417987E+01      81   46    1        -0.3731844002E+05      0.2447123715E+06
          0                 2           9            81   46     1       0.9710129728E-01      81   46    1         0.3730573379E+04      0.2446357089E+05
          0                 3           4            16   76     1       0.2847690422E-02      16   76    1         0.4477929070E+02      0.4777702675E+02

    ------------------------------------------------
       NWT REQUIRED            3 OUTER ITERATIONS 
       AND A TOTAL OF         24 INNER ITERATIONS.
    ------------------------------------------------

 OUTPUT CONTROL FOR STRESS PERIOD    8   TIME STEP   12
    SAVE BUDGET
 UBDSV1 SAVING "         STORAGE" ON UNIT  39 AT TIME STEP 12, STRESS PERIOD   8
 UBDSV2 SAVING "   CONSTANT HEAD" ON UNIT  39 AT TIME STEP 12, STRESS PERIOD   8
 UBDSV1 SAVING "FLOW RIGHT FACE " ON UNIT  39 AT TIME STEP 12, STRESS PERIOD   8
 UBDSV1 SAVING "FLOW FRONT FACE " ON UNIT  39 AT TIME STEP 12, STRESS PERIOD   8
 UBDSV1 SAVING "FLOW LOWER FACE " ON UNIT  39 AT TIME STEP 12, STRESS PERIOD   8
 UBDSV4 SAVING "           WELLS" ON UNIT  39 AT TIME STEP 12, STRESS PERIOD   8
 UBDSV3 SAVING "              ET" ON UNIT  39 AT TIME STEP 12, STRESS PERIOD   8
 UBDSV3 SAVING "        RECHARGE" ON UNIT  39 AT TIME STEP 12, STRESS PERIOD   8
1
  VOLUMETRIC BUDGET FOR ENTIRE MODEL AT END OF TIME STEP   12, STRESS PERIOD   8
  ------------------------------------------------------------------------------

     CUMULATIVE VOLUMES      L**3       RATES FOR THIS TIME STEP      L**3/T
     ------------------                 ------------------------

           IN:                                      IN:
           ---                                      ---
             STORAGE = 15496094720.0000               STORAGE =    10298476.0000
       CONSTANT HEAD =  3472927232.0000         CONSTANT HEAD =     1186547.6250
               WELLS =  3581329664.0000                 WELLS =     1225642.0000
                  ET =           0.0000                    ET =           0.0000
            RECHARGE = 34021365760.0000              RECHARGE =     9564303.0000

            TOTAL IN = 56571719680.0000              TOTAL IN =    22274968.0000

          OUT:                                     OUT:
          ----                                     ----
             STORAGE =  2654421248.0000               STORAGE =       27849.8770
       CONSTANT HEAD =  9458668544.0000         CONSTANT HEAD =     3349580.2500
               WELLS = 40342089728.0000                 WELLS =    18199996.0000
                  ET =  4116652288.0000                    ET =      697546.3125
            RECHARGE =           0.0000              RECHARGE =           0.0000

           TOTAL OUT = 56571830272.0000             TOTAL OUT =    22274972.0000

            IN - OUT =     -110592.0000              IN - OUT =          -4.0000

 PERCENT DISCREPANCY =          -0.00     PERCENT DISCREPANCY =          -0.00






         TIME SUMMARY AT END OF TIME STEP   12 IN STRESS PERIOD    8
                    SECONDS     MINUTES      HOURS       DAYS        YEARS
                    -----------------------------------------------------------
   TIME STEP LENGTH 2.62800E+06  43800.      730.00      30.417     8.32763E-02
 STRESS PERIOD TIME 3.15360E+07 5.25600E+05  8760.0      365.00     0.99932    
         TOTAL TIME 2.52461E+08 4.20768E+06  70128.      2922.0      8.0000    
1
1
                            STRESS PERIOD NO.    9, LENGTH =   366.0000    
                            -----------------------------------------------

                              NUMBER OF TIME STEPS =    12

                               MULTIPLIER FOR DELT =     1.000

                            INITIAL TIME STEP SIZE =   30.50000    

    948 WELLS

 REUSING SURF FROM LAST STRESS PERIOD

 REUSING EVTR FROM LAST STRESS PERIOD

 REUSING EXDP FROM LAST STRESS PERIOD



                           RECHARGE
 READING ON UNIT   16 WITH FORMAT: (15F5.0)            


     63 TIME-VARIANT SPECIFIED-HEAD CELLS
 
 SOLVING FOR HEAD 
                                                   Max.-Head-Change                         Max.-Flux-Residual
  Residual-Control   Outer-Iter.   Inner-Iter.     Column Row Layer    Maximum-Head-Change  Column Row Layer    Maximum-Flux-Residual          L2-NORM 
          0                 1          11            92   77     2      -0.9747745147E+01      23   15    2        -0.2862737586E+06      0.5906894476E+06
          0                 2          10            80   47     3      -0.9199452708E+00      23   15    2         0.2862737630E+05      0.5944794193E+05
          0                 3           5            80   48     3      -0.1746749357E-01      40   29    1         0.2602458875E+03      0.2860973190E+03
          0                 4           2            92   77     2       0.9245292579E-03      92   77    2         0.4657716271E+00      0.8726063180E+00

    ------------------------------------------------
       NWT REQUIRED            4 OUTER ITERATIONS 
       AND A TOTAL OF         28 INNER ITERATIONS.
    ------------------------------------------------

 NO OUTPUT CONTROL FOR STRESS PERIOD    9   TIME STEP    1
 
 SOLVING FOR HEAD 
                                                   Max.-Head-Change                         Max.-Flux-Residual
  Residual-Control   Outer-Iter.   Inner-Iter.     Column Row Layer    Maximum-Head-Change  Column Row Layer    Maximum-Flux-Residual          L2-NORM 
          0                 1          11            80   47     3       0.1905068039E+01      57   44    1         0.6897760438E+05      0.2989365339E+06
          0                 2           9            80   47     3      -0.1731762079E+00      57   44    1        -0.7001767364E+04      0.2987408870E+05
          0                 3           4            92   77     2       0.6044822358E-03      21   32    1         0.1368714839E+01      0.6165080635E+01

    ------------------------------------------------
       NWT REQUIRED            3 OUTER ITERATIONS 
       AND A TOTAL OF         24 INNER ITERATIONS.
    ------------------------------------------------

 NO OUTPUT CONTROL FOR STRESS PERIOD    9   TIME STEP    2
 
 SOLVING FOR HEAD 
                                                   Max.-Head-Change                         Max.-Flux-Residual
  Residual-Control   Outer-Iter.   Inner-Iter.     Column Row Layer    Maximum-Head-Change  Column Row Layer    Maximum-Flux-Residual          L2-NORM 
          0                 1          11            81   45     1       0.7731708990E+00      26   19    1        -0.3546397229E+05      0.2544955442E+06
          0                 2           9            81   45     1      -0.7030898980E-01      26   19    1         0.3523844824E+04      0.2545179556E+05
          0                 3           4            92   77     2       0.5670330650E-03      28   18    2        -0.1312831851E+01      0.6170425621E+01

    ------------------------------------------------
       NWT REQUIRED            3 OUTER ITERATIONS 
       AND A TOTAL OF         24 INNER ITERATIONS.
    ------------------------------------------------

 NO OUTPUT CONTROL FOR STRESS PERIOD    9   TIME STEP    3
 
 SOLVING FOR HEAD 
                                                   Max.-Head-Change                         Max.-Flux-Residual
  Residual-Control   Outer-Iter.   Inner-Iter.     Column Row Layer    Maximum-Head-Change  Column Row Layer    Maximum-Flux-Residual          L2-NORM 
          0                 1          11            81   45     1       0.6721278780E+00      24   18    1        -0.2563216201E+05      0.2375118653E+06
          0                 2           9            81   45     1      -0.6111854140E-01      24   18    1         0.2553887982E+04      0.2374269865E+05
          0                 3           4            92   77     2       0.5358730626E-03      40   29    1         0.9331644773E+00      0.5573012112E+01

    ------------------------------------------------
       NWT REQUIRED            3 OUTER ITERATIONS 
       AND A TOTAL OF         24 INNER ITERATIONS.
    ------------------------------------------------

 NO OUTPUT CONTROL FOR STRESS PERIOD    9   TIME STEP    4
 
 SOLVING FOR HEAD 
                                                   Max.-Head-Change                         Max.-Flux-Residual
  Residual-Control   Outer-Iter.   Inner-Iter.     Column Row Layer    Maximum-Head-Change  Column Row Layer    Maximum-Flux-Residual          L2-NORM 
          0                 1          11            81   45     1       0.5840724715E+00      24   18    1        -0.2094356177E+05      0.2287601585E+06
          0                 2           9            81   45     1      -0.5310971370E-01      24   18    1         0.2089872641E+04      0.2287753191E+05
          0                 3           4            92   77     2       0.5094382193E-03      84   47    2        -0.7096075432E+01      0.1080023734E+02

    ------------------------------------------------
       NWT REQUIRED            3 OUTER ITERATIONS 
       AND A TOTAL OF         24 INNER ITERATIONS.
    ------------------------------------------------

 NO OUTPUT CONTROL FOR STRESS PERIOD    9   TIME STEP    5
 
 SOLVING FOR HEAD 
                                                   Max.-Head-Change                         Max.-Flux-Residual
  Residual-Control   Outer-Iter.   Inner-Iter.     Column Row Layer    Maximum-Head-Change  Column Row Layer    Maximum-Flux-Residual          L2-NORM 
          0                 1          11            81   45     1       0.5074351121E+00      24   18    1        -0.1823248067E+05      0.2232782536E+06
          0                 2           9            81   45     1      -0.4614014467E-01      24   18    1         0.1820642269E+04      0.2232088304E+05
          0                 3           4            92   77     2       0.4865652196E-03      42   36    1         0.8409848213E+00      0.5378777427E+01

    ------------------------------------------------
       NWT REQUIRED            3 OUTER ITERATIONS 
       AND A TOTAL OF         24 INNER ITERATIONS.
    ------------------------------------------------

 NO OUTPUT CONTROL FOR STRESS PERIOD    9   TIME STEP    6
 
 SOLVING FOR HEAD 
                                                   Max.-Head-Change                         Max.-Flux-Residual
  Residual-Control   Outer-Iter.   Inner-Iter.     Column Row Layer    Maximum-Head-Change  Column Row Layer    Maximum-Flux-Residual          L2-NORM 
          0                 1          11            81   45     1       0.4407684335E+00      25   18    1        -0.1653945377E+05      0.2194359956E+06
          0                 2           9            81   45     1      -0.4007747999E-01      25   18    1         0.1652898648E+04      0.2193824257E+05
          0                 3           4            66   26     2       0.8477587743E-03      66   26    2         0.1976072042E+02      0.2047243774E+02

    ------------------------------------------------
       NWT REQUIRED            3 OUTER ITERATIONS 
       AND A TOTAL OF         24 INNER ITERATIONS.
    ------------------------------------------------

 NO OUTPUT CONTROL FOR STRESS PERIOD    9   TIME STEP    7
 
 SOLVING FOR HEAD 
                                                   Max.-Head-Change                         Max.-Flux-Residual
  Residual-Control   Outer-Iter.   Inner-Iter.     Column Row Layer    Maximum-Head-Change  Column Row Layer    Maximum-Flux-Residual          L2-NORM 
          0                 1          11            81   45     1       0.3827870331E+00      12   10    1        -0.1602556314E+05      0.2165735059E+06
          0                 2           9            81   45     1      -0.3480488152E-01      12   10    1         0.1584036953E+04      0.2166040631E+05
          0                 3           4            92   77     2       0.4485801851E-03      40   29    1         0.7869705558E+00      0.5316424742E+01

    ------------------------------------------------
       NWT REQUIRED            3 OUTER ITERATIONS 
       AND A TOTAL OF         24 INNER ITERATIONS.
    ------------------------------------------------

 NO OUTPUT CONTROL FOR STRESS PERIOD    9   TIME STEP    8
 
 SOLVING FOR HEAD 
                                                   Max.-Head-Change                         Max.-Flux-Residual
  Residual-Control   Outer-Iter.   Inner-Iter.     Column Row Layer    Maximum-Head-Change  Column Row Layer    Maximum-Flux-Residual          L2-NORM 
          0                 1          11            25   18     1      -0.3586469992E+00      12   10    1        -0.1607819846E+05      0.2143472741E+06
          0                 2           9            25   18     1       0.3259311188E-01      12   10    1         0.1589135953E+04      0.2143011920E+05
          0                 3           4            92   77     2       0.4323958524E-03      40   29    1         0.7715707123E+00      0.5296351364E+01

    ------------------------------------------------
       NWT REQUIRED            3 OUTER ITERATIONS 
       AND A TOTAL OF         24 INNER ITERATIONS.
    ------------------------------------------------

 NO OUTPUT CONTROL FOR STRESS PERIOD    9   TIME STEP    9
 
 SOLVING FOR HEAD 
                                                   Max.-Head-Change                         Max.-Flux-Residual
  Residual-Control   Outer-Iter.   Inner-Iter.     Column Row Layer    Maximum-Head-Change  Column Row Layer    Maximum-Flux-Residual          L2-NORM 
          0                 1          11            12    6     3      -0.3411022366E+00      12   10    1        -0.1612383699E+05      0.2125575907E+06
          0                 2           9            12    6     3       0.3098548506E-01      12   10    1         0.1593553181E+04      0.2125083804E+05
          0                 3           4            92   77     2       0.4176157631E-03      40   29    1         0.7598488331E+00      0.5289366400E+01

    ------------------------------------------------
       NWT REQUIRED            3 OUTER ITERATIONS 
       AND A TOTAL OF         24 INNER ITERATIONS.
    ------------------------------------------------

 NO OUTPUT CONTROL FOR STRESS PERIOD    9   TIME STEP   10
 
 SOLVING FOR HEAD 
                                                   Max.-Head-Change                         Max.-Flux-Residual
  Residual-Control   Outer-Iter.   Inner-Iter.     Column Row Layer    Maximum-Head-Change  Column Row Layer    Maximum-Flux-Residual          L2-NORM 
          0                 1          11            12    6     3      -0.3420624824E+00      12   10    1        -0.1616146017E+05      0.2110813872E+06
          0                 2           9            55   38     2       0.9038249453E-01      55   38    2         0.6188887500E+04      0.2199179415E+05
          0                 3           4            92   77     2       0.4040008685E-03      56   38    1         0.9181860369E+00      0.5370664795E+01

    ------------------------------------------------
       NWT REQUIRED            3 OUTER ITERATIONS 
       AND A TOTAL OF         24 INNER ITERATIONS.
    ------------------------------------------------

 NO OUTPUT CONTROL FOR STRESS PERIOD    9   TIME STEP   11
 
 SOLVING FOR HEAD 
                                                   Max.-Head-Change                         Max.-Flux-Residual
  Residual-Control   Outer-Iter.   Inner-Iter.     Column Row Layer    Maximum-Head-Change  Column Row Layer    Maximum-Flux-Residual          L2-NORM 
          0                 1          10            12    6     3      -0.3429696926E+00      12   10    1        -0.1619798515E+05      0.2097708211E+06
          0                 2           9            12    6     3       0.3115484294E-01      12   10    1         0.1600712854E+04      0.2102484297E+05
          0                 3           4            92   77     2       0.3913591558E-03      40   29    1         0.7434513867E+00      0.5267301385E+01

    ------------------------------------------------
       NWT REQUIRED            3 OUTER ITERATIONS 
       AND A TOTAL OF         23 INNER ITERATIONS.
    ------------------------------------------------

 OUTPUT CONTROL FOR STRESS PERIOD    9   TIME STEP   12
    SAVE BUDGET
 UBDSV1 SAVING "         STORAGE" ON UNIT  39 AT TIME STEP 12, STRESS PERIOD   9
 UBDSV2 SAVING "   CONSTANT HEAD" ON UNIT  39 AT TIME STEP 12, STRESS PERIOD   9
 UBDSV1 SAVING "FLOW RIGHT FACE " ON UNIT  39 AT TIME STEP 12, STRESS PERIOD   9
 UBDSV1 SAVING "FLOW FRONT FACE " ON UNIT  39 AT TIME STEP 12, STRESS PERIOD   9
 UBDSV1 SAVING "FLOW LOWER FACE " ON UNIT  39 AT TIME STEP 12, STRESS PERIOD   9
 UBDSV4 SAVING "           WELLS" ON UNIT  39 AT TIME STEP 12, STRESS PERIOD   9
 UBDSV3 SAVING "              ET" ON UNIT  39 AT TIME STEP 12, STRESS PERIOD   9
 UBDSV3 SAVING "        RECHARGE" ON UNIT  39 AT TIME STEP 12, STRESS PERIOD   9
1
  VOLUMETRIC BUDGET FOR ENTIRE MODEL AT END OF TIME STEP   12, STRESS PERIOD   9
  ------------------------------------------------------------------------------

     CUMULATIVE VOLUMES      L**3       RATES FOR THIS TIME STEP      L**3/T
     ------------------                 ------------------------

           IN:                                      IN:
           ---                                      ---
             STORAGE = 19025160192.0000               STORAGE =     9538925.0000
       CONSTANT HEAD =  3910366464.0000         CONSTANT HEAD =     1184899.3750
               WELLS =  4029915392.0000                 WELLS =     1225642.0000
                  ET =           0.0000                    ET =           0.0000
            RECHARGE = 38320545792.0000              RECHARGE =    11746443.0000

            TOTAL IN = 65285988352.0000              TOTAL IN =    23695908.0000

          OUT:                                     OUT:
          ----                                     ----
             STORAGE =  2737047552.0000               STORAGE =       55995.4531
       CONSTANT HEAD = 10714006528.0000         CONSTANT HEAD =     3472821.0000
               WELLS = 47434330112.0000                 WELLS =    19377648.0000
                  ET =  4400761344.0000                    ET =      789452.0000
            RECHARGE =           0.0000              RECHARGE =           0.0000

           TOTAL OUT = 65286144000.0000             TOTAL OUT =    23695916.0000

            IN - OUT =     -155648.0000              IN - OUT =          -8.0000

 PERCENT DISCREPANCY =          -0.00     PERCENT DISCREPANCY =          -0.00






         TIME SUMMARY AT END OF TIME STEP   12 IN STRESS PERIOD    9
                    SECONDS     MINUTES      HOURS       DAYS        YEARS
                    -----------------------------------------------------------
   TIME STEP LENGTH 2.63520E+06  43920.      732.00      30.500     8.35044E-02
 STRESS PERIOD TIME 3.16224E+07 5.27040E+05  8784.0      366.00      1.0021    
         TOTAL TIME 2.84083E+08 4.73472E+06  78912.      3288.0      9.0021    
1
1
                            STRESS PERIOD NO.   10, LENGTH =   365.0000    
                            -----------------------------------------------

                              NUMBER OF TIME STEPS =    12

                               MULTIPLIER FOR DELT =     1.000

                            INITIAL TIME STEP SIZE =   30.41667    

    986 WELLS

 REUSING SURF FROM LAST STRESS PERIOD

 REUSING EVTR FROM LAST STRESS PERIOD

 REUSING EXDP FROM LAST STRESS PERIOD



                           RECHARGE
 READING ON UNIT   16 WITH FORMAT: (15F5.0)            


     63 TIME-VARIANT SPECIFIED-HEAD CELLS
 
 SOLVING FOR HEAD 
                                                   Max.-Head-Change                         Max.-Flux-Residual
  Residual-Control   Outer-Iter.   Inner-Iter.     Column Row Layer    Maximum-Head-Change  Column Row Layer    Maximum-Flux-Residual          L2-NORM 
          0                 1          11            92   77     2       0.1491378020E+02      30   25    2        -0.2244929378E+06      0.5381344631E+06
          0                 2          10            92   77     2      -0.5079441544E+00      30   25    2         0.2244929412E+05      0.5324317310E+05
          0                 3           4            92   77     2      -0.2917935728E-01      67   48    1        -0.1038011437E+03      0.1476425843E+03
          0                 4           2            92   77     2      -0.1674102626E-02      67   47    1         0.8225075826E+01      0.8527091427E+01

    ------------------------------------------------
       NWT REQUIRED            4 OUTER ITERATIONS 
       AND A TOTAL OF         27 INNER ITERATIONS.
    ------------------------------------------------

 NO OUTPUT CONTROL FOR STRESS PERIOD   10   TIME STEP    1

 INTERPOLATION FOR HEAD OBS# 3773, ID 1405-10-34   CHANGED BECAUSE AT LEAST ONE
 NEIGHBORING CELL REQUIRED FOR INTERPOLATION IS DRY OR INACTIVE (OBS2BAS7SE)
 
 SOLVING FOR HEAD 
                                                   Max.-Head-Change                         Max.-Flux-Residual
  Residual-Control   Outer-Iter.   Inner-Iter.     Column Row Layer    Maximum-Head-Change  Column Row Layer    Maximum-Flux-Residual          L2-NORM 
          0                 1          11            36   26     1      -0.1671843745E+01      36   26    1        -0.1194525179E+06      0.3465030840E+06
          0                 2          10            36   26     1       0.1486921272E+00      36   26    1         0.1152205469E+05      0.3454637811E+05
          0                 3           5            25   10     2       0.2390390789E-02      25   10    2         0.8940651198E+02      0.9026309408E+02

    ------------------------------------------------
       NWT REQUIRED            3 OUTER ITERATIONS 
       AND A TOTAL OF         26 INNER ITERATIONS.
    ------------------------------------------------

 NO OUTPUT CONTROL FOR STRESS PERIOD   10   TIME STEP    2
 
 SOLVING FOR HEAD 
                                                   Max.-Head-Change                         Max.-Flux-Residual
  Residual-Control   Outer-Iter.   Inner-Iter.     Column Row Layer    Maximum-Head-Change  Column Row Layer    Maximum-Flux-Residual          L2-NORM 
          0                 1          11            81   45     1       0.1132992435E+01      36   26    1        -0.6285670373E+05      0.3017570418E+06
          0                 2          10            27   14     1      -0.1103334776E+00      36   26    1         0.6161689523E+04      0.3071535285E+05
          0                 3           5            27   14     1       0.9845639904E-02      47   31    1         0.3570341825E+03      0.4304318601E+03

    ------------------------------------------------
       NWT REQUIRED            3 OUTER ITERATIONS 
       AND A TOTAL OF         26 INNER ITERATIONS.
    ------------------------------------------------

 NO OUTPUT CONTROL FOR STRESS PERIOD   10   TIME STEP    3

 INTERPOLATION FOR HEAD OBS# 6306, ID 766-10-104   CHANGED BECAUSE AT LEAST ONE
 NEIGHBORING CELL REQUIRED FOR INTERPOLATION IS DRY OR INACTIVE (OBS2BAS7SE)
 
 SOLVING FOR HEAD 
                                                   Max.-Head-Change                         Max.-Flux-Residual
  Residual-Control   Outer-Iter.   Inner-Iter.     Column Row Layer    Maximum-Head-Change  Column Row Layer    Maximum-Flux-Residual          L2-NORM 
          0                 1          11            81   45     1       0.9912587071E+00      36   26    1        -0.3860356265E+05      0.2818112444E+06
          0                 2          10            81   45     1      -0.9015279370E-01      36   26    1         0.3816422511E+04      0.2826034212E+05
          0                 3           4            90   76     2       0.1352030076E-03      27   14    1         0.1034675986E+01      0.5449012656E+01

    ------------------------------------------------
       NWT REQUIRED            3 OUTER ITERATIONS 
       AND A TOTAL OF         25 INNER ITERATIONS.
    ------------------------------------------------

 NO OUTPUT CONTROL FOR STRESS PERIOD   10   TIME STEP    4
 
 SOLVING FOR HEAD 
                                                   Max.-Head-Change                         Max.-Flux-Residual
  Residual-Control   Outer-Iter.   Inner-Iter.     Column Row Layer    Maximum-Head-Change  Column Row Layer    Maximum-Flux-Residual          L2-NORM 
          0                 1          11            81   45     1       0.8677537014E+00      70   47    1         0.3188105197E+05      0.2701040425E+06
          0                 2          10            25   10     1      -0.1259645698E+00      70   47    1        -0.3193684757E+04      0.2705063129E+05
          0                 3           5            25   10     1       0.1121234862E-01      25   10    1         0.1765758528E+03      0.1859466802E+03
          0                 4           2            25   10     1       0.2162593298E-04      25   10    1         0.3112341315E+00      0.3303118224E+00

    ------------------------------------------------
       NWT REQUIRED            4 OUTER ITERATIONS 
       AND A TOTAL OF         28 INNER ITERATIONS.
    ------------------------------------------------

 NO OUTPUT CONTROL FOR STRESS PERIOD   10   TIME STEP    5
 
 SOLVING FOR HEAD 
                                                   Max.-Head-Change                         Max.-Flux-Residual
  Residual-Control   Outer-Iter.   Inner-Iter.     Column Row Layer    Maximum-Head-Change  Column Row Layer    Maximum-Flux-Residual          L2-NORM 
          0                 1          11            81   45     1       0.7601103170E+00      70   47    1         0.2815184134E+05      0.2621584053E+06
          0                 2          10            81   45     1      -0.6912102288E-01      70   47    1        -0.2819413631E+04      0.2624695374E+05
          0                 3           6            56   51     1       0.5642834124E-02      56   51    1         0.1629400102E+03      0.1959131312E+03

    ------------------------------------------------
       NWT REQUIRED            3 OUTER ITERATIONS 
       AND A TOTAL OF         27 INNER ITERATIONS.
    ------------------------------------------------

 NO OUTPUT CONTROL FOR STRESS PERIOD   10   TIME STEP    6
 
 SOLVING FOR HEAD 
                                                   Max.-Head-Change                         Max.-Flux-Residual
  Residual-Control   Outer-Iter.   Inner-Iter.     Column Row Layer    Maximum-Head-Change  Column Row Layer    Maximum-Flux-Residual          L2-NORM 
          0                 1          11            81   45     1       0.6662708655E+00      12    8    1        -0.2705446027E+05      0.2564296461E+06
          0                 2          10            16   35     2      -0.9709924593E-01      12    8    1         0.2656093722E+04      0.2571764063E+05
          0                 3           5            16   35     2       0.8691589513E-02      16   35    2         0.1389466313E+03      0.1457445569E+03

    ------------------------------------------------
       NWT REQUIRED            3 OUTER ITERATIONS 
       AND A TOTAL OF         26 INNER ITERATIONS.
    ------------------------------------------------

 NO OUTPUT CONTROL FOR STRESS PERIOD   10   TIME STEP    7

 INTERPOLATION FOR HEAD OBS# 3514, ID 1473-10-213  CHANGED BECAUSE AT LEAST ONE
 NEIGHBORING CELL REQUIRED FOR INTERPOLATION IS DRY OR INACTIVE (OBS2BAS7SE)
 
 SOLVING FOR HEAD 
                                                   Max.-Head-Change                         Max.-Flux-Residual
  Residual-Control   Outer-Iter.   Inner-Iter.     Column Row Layer    Maximum-Head-Change  Column Row Layer    Maximum-Flux-Residual          L2-NORM 
          0                 1          11            12    5     3      -0.6272755748E+00      12    8    1        -0.2726826518E+05      0.2520836130E+06
          0                 2          10            12    5     3       0.5694276069E-01      12    8    1         0.2676748141E+04      0.2521817766E+05
          0                 3           4            55   38     1       0.1066790689E-02      55   38    1         0.8394920904E+01      0.1249369791E+02

    ------------------------------------------------
       NWT REQUIRED            3 OUTER ITERATIONS 
       AND A TOTAL OF         25 INNER ITERATIONS.
    ------------------------------------------------

 NO OUTPUT CONTROL FOR STRESS PERIOD   10   TIME STEP    8
 
 SOLVING FOR HEAD 
                                                   Max.-Head-Change                         Max.-Flux-Residual
  Residual-Control   Outer-Iter.   Inner-Iter.     Column Row Layer    Maximum-Head-Change  Column Row Layer    Maximum-Flux-Residual          L2-NORM 
          0                 1          11            55   38     1      -0.9182143208E+00      12    8    1        -0.2742353079E+05      0.2485999964E+06
          0                 2          10            55   38     1       0.7833270654E-01      12    8    1         0.2691713640E+04      0.2483543762E+05
          0                 3           4            55   38     1       0.4007460386E-03      55   38    1         0.2877259890E+01      0.5869543397E+01

    ------------------------------------------------
       NWT REQUIRED            3 OUTER ITERATIONS 
       AND A TOTAL OF         25 INNER ITERATIONS.
    ------------------------------------------------

 NO OUTPUT CONTROL FOR STRESS PERIOD   10   TIME STEP    9
 
 SOLVING FOR HEAD 
                                                   Max.-Head-Change                         Max.-Flux-Residual
  Residual-Control   Outer-Iter.   Inner-Iter.     Column Row Layer    Maximum-Head-Change  Column Row Layer    Maximum-Flux-Residual          L2-NORM 
          0                 1          11            12    5     3      -0.6344240737E+00      12    8    1        -0.2753905582E+05      0.2458921360E+06
          0                 2          10            12    5     3       0.5758907511E-01      12    8    1         0.2702807856E+04      0.2456446904E+05
          0                 3           4            57   35     1       0.1260087582E-03      31   18    1         0.8565930687E+00      0.5147878044E+01

    ------------------------------------------------
       NWT REQUIRED            3 OUTER ITERATIONS 
       AND A TOTAL OF         25 INNER ITERATIONS.
    ------------------------------------------------

 NO OUTPUT CONTROL FOR STRESS PERIOD   10   TIME STEP   10
 
 SOLVING FOR HEAD 
                                                   Max.-Head-Change                         Max.-Flux-Residual
  Residual-Control   Outer-Iter.   Inner-Iter.     Column Row Layer    Maximum-Head-Change  Column Row Layer    Maximum-Flux-Residual          L2-NORM 
          0                 1          11            12    5     3      -0.6373226425E+00      12    8    1        -0.2762803826E+05      0.2436459241E+06
          0                 2          10            12    5     3       0.5785095808E-01      12    8    1         0.2711315933E+04      0.2433917721E+05
          0                 3           4            57   35     1       0.1259832793E-03      13   14    1         0.8752643466E+00      0.5140365097E+01

    ------------------------------------------------
       NWT REQUIRED            3 OUTER ITERATIONS 
       AND A TOTAL OF         25 INNER ITERATIONS.
    ------------------------------------------------

 NO OUTPUT CONTROL FOR STRESS PERIOD   10   TIME STEP   11
 
 SOLVING FOR HEAD 
                                                   Max.-Head-Change                         Max.-Flux-Residual
  Residual-Control   Outer-Iter.   Inner-Iter.     Column Row Layer    Maximum-Head-Change  Column Row Layer    Maximum-Flux-Residual          L2-NORM 
          0                 1          11            12    5     3      -0.6398642260E+00      12    8    1        -0.2769524670E+05      0.2418074849E+06
          0                 2          10            12    5     3       0.5808109794E-01      12    8    1         0.2717717222E+04      0.2413365345E+05
          0                 3           4            80   45     1      -0.1267284364E-03      13   14    1         0.8941102624E+00      0.5137057543E+01

    ------------------------------------------------
       NWT REQUIRED            3 OUTER ITERATIONS 
       AND A TOTAL OF         25 INNER ITERATIONS.
    ------------------------------------------------

 OUTPUT CONTROL FOR STRESS PERIOD   10   TIME STEP   12
    SAVE BUDGET
 UBDSV1 SAVING "         STORAGE" ON UNIT  39 AT TIME STEP 12, STRESS PERIOD  10
 UBDSV2 SAVING "   CONSTANT HEAD" ON UNIT  39 AT TIME STEP 12, STRESS PERIOD  10
 UBDSV1 SAVING "FLOW RIGHT FACE " ON UNIT  39 AT TIME STEP 12, STRESS PERIOD  10
 UBDSV1 SAVING "FLOW FRONT FACE " ON UNIT  39 AT TIME STEP 12, STRESS PERIOD  10
 UBDSV1 SAVING "FLOW LOWER FACE " ON UNIT  39 AT TIME STEP 12, STRESS PERIOD  10
 UBDSV4 SAVING "           WELLS" ON UNIT  39 AT TIME STEP 12, STRESS PERIOD  10
 UBDSV3 SAVING "              ET" ON UNIT  39 AT TIME STEP 12, STRESS PERIOD  10
 UBDSV3 SAVING "        RECHARGE" ON UNIT  39 AT TIME STEP 12, STRESS PERIOD  10

 INTERPOLATION FOR HEAD OBS# 3404, ID 1428-11-1    CHANGED BECAUSE AT LEAST ONE
 NEIGHBORING CELL REQUIRED FOR INTERPOLATION IS DRY OR INACTIVE (OBS2BAS7SE)
1
  VOLUMETRIC BUDGET FOR ENTIRE MODEL AT END OF TIME STEP   12, STRESS PERIOD  10
  ------------------------------------------------------------------------------

     CUMULATIVE VOLUMES      L**3       RATES FOR THIS TIME STEP      L**3/T
     ------------------                 ------------------------

           IN:                                      IN:
           ---                                      ---
             STORAGE = 22453434368.0000               STORAGE =     9277234.0000
       CONSTANT HEAD =  4349414400.0000         CONSTANT HEAD =     1213305.3750
               WELLS =  4477274112.0000                 WELLS =     1225642.0000
                  ET =           0.0000                    ET =           0.0000
            RECHARGE = 43449409536.0000              RECHARGE =    14051623.0000

            TOTAL IN = 74729529344.0000              TOTAL IN =    25767804.0000

          OUT:                                     OUT:
          ----                                     ----
             STORAGE =  3008706048.0000               STORAGE =      406128.4688
       CONSTANT HEAD = 12062272512.0000         CONSTANT HEAD =     3823271.5000
               WELLS = 54889017344.0000                 WELLS =    20423760.0000
                  ET =  4769691648.0000                    ET =     1114649.1250
            RECHARGE =           0.0000              RECHARGE =           0.0000

           TOTAL OUT = 74729684992.0000             TOTAL OUT =    25767810.0000

            IN - OUT =     -155648.0000              IN - OUT =          -6.0000

 PERCENT DISCREPANCY =          -0.00     PERCENT DISCREPANCY =          -0.00






         TIME SUMMARY AT END OF TIME STEP   12 IN STRESS PERIOD   10
                    SECONDS     MINUTES      HOURS       DAYS        YEARS
                    -----------------------------------------------------------
   TIME STEP LENGTH 2.62800E+06  43800.      730.00      30.417     8.32763E-02
 STRESS PERIOD TIME 3.15360E+07 5.25600E+05  8760.0      365.00     0.99932    
         TOTAL TIME 3.15619E+08 5.26032E+06  87672.      3653.0      10.001    
1
1
                            STRESS PERIOD NO.   11, LENGTH =   365.0000    
                            -----------------------------------------------

                              NUMBER OF TIME STEPS =    12

                               MULTIPLIER FOR DELT =     1.000

                            INITIAL TIME STEP SIZE =   30.41667    

   1022 WELLS

 REUSING SURF FROM LAST STRESS PERIOD

 REUSING EVTR FROM LAST STRESS PERIOD

 REUSING EXDP FROM LAST STRESS PERIOD



                           RECHARGE
 READING ON UNIT   16 WITH FORMAT: (15F5.0)            


     63 TIME-VARIANT SPECIFIED-HEAD CELLS
 
 SOLVING FOR HEAD 
                                                   Max.-Head-Change                         Max.-Flux-Residual
  Residual-Control   Outer-Iter.   Inner-Iter.     Column Row Layer    Maximum-Head-Change  Column Row Layer    Maximum-Flux-Residual          L2-NORM 
          0                 1          11            65    2     2       0.2961168154E+02      60  100    1        -0.1965941415E+06      0.8649965730E+06
          0                 2          10            79   48     2       0.2154983939E+01      60  100    1         0.1770745648E+05      0.8613094715E+05
          0                 3           6            65    2     2      -0.5781424346E-01      64   82    2        -0.4598205301E+03      0.9040455579E+03
          0                 4           4            65    2     2      -0.3321922274E-02      63   82    2         0.3444967623E+02      0.4492263952E+02

    ------------------------------------------------
       NWT REQUIRED            4 OUTER ITERATIONS 
       AND A TOTAL OF         31 INNER ITERATIONS.
    ------------------------------------------------

 NO OUTPUT CONTROL FOR STRESS PERIOD   11   TIME STEP    1

 INTERPOLATION FOR HEAD OBS#  635, ID 3016-11-53   CHANGED BECAUSE AT LEAST ONE
 NEIGHBORING CELL REQUIRED FOR INTERPOLATION IS DRY OR INACTIVE (OBS2BAS7SE)

 INTERPOLATION FOR HEAD OBS#  648, ID 3055-11-56   CHANGED BECAUSE AT LEAST ONE
 NEIGHBORING CELL REQUIRED FOR INTERPOLATION IS DRY OR INACTIVE (OBS2BAS7SE)

 INTERPOLATION FOR HEAD OBS# 3661, ID 1891-11-38   CHANGED BECAUSE AT LEAST ONE
 NEIGHBORING CELL REQUIRED FOR INTERPOLATION IS DRY OR INACTIVE (OBS2BAS7SE)
 
 SOLVING FOR HEAD 
                                                   Max.-Head-Change                         Max.-Flux-Residual
  Residual-Control   Outer-Iter.   Inner-Iter.     Column Row Layer    Maximum-Head-Change  Column Row Layer    Maximum-Flux-Residual          L2-NORM 
          0                 1          11            42   32     1       0.1940565430E+01      60  100    1        -0.9467488888E+05      0.5097756488E+06
          0                 2          10            42   32     1      -0.1796399923E+00      60  100    1         0.1154431164E+05      0.5140450261E+05
          0                 3           5            66   26     2      -0.1093406015E-01      66   26    2        -0.3197603501E+03      0.3546821893E+03
          0                 4           3            65    2     2      -0.6068536977E-04      62   84    1        -0.6140184104E+00      0.9154347925E+00

    ------------------------------------------------
       NWT REQUIRED            4 OUTER ITERATIONS 
       AND A TOTAL OF         29 INNER ITERATIONS.
    ------------------------------------------------

 NO OUTPUT CONTROL FOR STRESS PERIOD   11   TIME STEP    2

 INTERPOLATION FOR HEAD OBS# 1563, ID 2931-11-62   CHANGED BECAUSE AT LEAST ONE
 NEIGHBORING CELL REQUIRED FOR INTERPOLATION IS DRY OR INACTIVE (OBS2BAS7SE)

 INTERPOLATION FOR HEAD OBS# 3197, ID 2435-11-80   CHANGED BECAUSE AT LEAST ONE
 NEIGHBORING CELL REQUIRED FOR INTERPOLATION IS DRY OR INACTIVE (OBS2BAS7SE)
 
 SOLVING FOR HEAD 
                                                   Max.-Head-Change                         Max.-Flux-Residual
  Residual-Control   Outer-Iter.   Inner-Iter.     Column Row Layer    Maximum-Head-Change  Column Row Layer    Maximum-Flux-Residual          L2-NORM 
          0                 1          11            42   32     1       0.1487893905E+01      42   32    1         0.6860072374E+05      0.4093571074E+06
          0                 2          10            42   32     1      -0.1369808061E+00      42   32    1        -0.7006970306E+04      0.4091475889E+05
          0                 3           4            67    9     2      -0.2877590019E-02      26   13    1         0.3888705035E+02      0.5828440895E+02

    ------------------------------------------------
       NWT REQUIRED            3 OUTER ITERATIONS 
       AND A TOTAL OF         25 INNER ITERATIONS.
    ------------------------------------------------

 NO OUTPUT CONTROL FOR STRESS PERIOD   11   TIME STEP    3

 INTERPOLATION FOR HEAD OBS# 1241, ID 2727-11-121  CHANGED BECAUSE AT LEAST ONE
 NEIGHBORING CELL REQUIRED FOR INTERPOLATION IS DRY OR INACTIVE (OBS2BAS7SE)
 
 SOLVING FOR HEAD 
                                                   Max.-Head-Change                         Max.-Flux-Residual
  Residual-Control   Outer-Iter.   Inner-Iter.     Column Row Layer    Maximum-Head-Change  Column Row Layer    Maximum-Flux-Residual          L2-NORM 
          0                 1          11            70   19     2       0.1280937522E+01      42   32    1         0.5262852958E+05      0.3645583041E+06
          0                 2          10            70   19     2      -0.1155959247E+00      42   32    1        -0.5344055084E+04      0.3647328209E+05
          0                 3           4            73   13     3      -0.1809892864E-02      73   13    3        -0.6103925550E+01      0.1356659202E+02

    ------------------------------------------------
       NWT REQUIRED            3 OUTER ITERATIONS 
       AND A TOTAL OF         25 INNER ITERATIONS.
    ------------------------------------------------

 NO OUTPUT CONTROL FOR STRESS PERIOD   11   TIME STEP    4
 
 SOLVING FOR HEAD 
                                                   Max.-Head-Change                         Max.-Flux-Residual
  Residual-Control   Outer-Iter.   Inner-Iter.     Column Row Layer    Maximum-Head-Change  Column Row Layer    Maximum-Flux-Residual          L2-NORM 
          0                 1          11            70   19     2       0.1198166569E+01      42   32    1         0.4170657605E+05      0.3381596845E+06
          0                 2          10            70   19     2      -0.1080932419E+00      42   32    1        -0.4217866050E+04      0.3377935484E+05
          0                 3           4            73   15     1      -0.8624079492E-03      70   19    1        -0.3118664749E+01      0.1003182747E+02

    ------------------------------------------------
       NWT REQUIRED            3 OUTER ITERATIONS 
       AND A TOTAL OF         25 INNER ITERATIONS.
    ------------------------------------------------

 NO OUTPUT CONTROL FOR STRESS PERIOD   11   TIME STEP    5
 
 SOLVING FOR HEAD 
                                                   Max.-Head-Change                         Max.-Flux-Residual
  Residual-Control   Outer-Iter.   Inner-Iter.     Column Row Layer    Maximum-Head-Change  Column Row Layer    Maximum-Flux-Residual          L2-NORM 
          0                 1          11            70   19     2       0.1123310223E+01      79   48    1        -0.3900041035E+05      0.3202901678E+06
          0                 2          10            70   19     2      -0.1013120159E+00      79   48    1         0.3886244714E+04      0.3200253663E+05
          0                 3           4            73   15     1      -0.8624828172E-03      70   19    1        -0.2923599448E+01      0.9826773356E+01

    ------------------------------------------------
       NWT REQUIRED            3 OUTER ITERATIONS 
       AND A TOTAL OF         25 INNER ITERATIONS.
    ------------------------------------------------

 NO OUTPUT CONTROL FOR STRESS PERIOD   11   TIME STEP    6
 
 SOLVING FOR HEAD 
                                                   Max.-Head-Change                         Max.-Flux-Residual
  Residual-Control   Outer-Iter.   Inner-Iter.     Column Row Layer    Maximum-Head-Change  Column Row Layer    Maximum-Flux-Residual          L2-NORM 
          0                 1          11            70   19     2       0.1055492353E+01      79   48    1        -0.3690106888E+05      0.3072523024E+06
          0                 2          10            65   44     2       0.9635260926E-01      65   44    2         0.4557234671E+04      0.3104116640E+05
          0                 3           4            73   48     1      -0.1127804104E-02      73   48    1        -0.6569310444E+02      0.6638815528E+02

    ------------------------------------------------
       NWT REQUIRED            3 OUTER ITERATIONS 
       AND A TOTAL OF         25 INNER ITERATIONS.
    ------------------------------------------------

 NO OUTPUT CONTROL FOR STRESS PERIOD   11   TIME STEP    7
 
 SOLVING FOR HEAD 
                                                   Max.-Head-Change                         Max.-Flux-Residual
  Residual-Control   Outer-Iter.   Inner-Iter.     Column Row Layer    Maximum-Head-Change  Column Row Layer    Maximum-Flux-Residual          L2-NORM 
          0                 1          11            70   19     2       0.9939389705E+00      79   48    1        -0.3490235977E+05      0.2972413510E+06
          0                 2          10            67   23     1      -0.1588070146E+00      67   23    1        -0.7840356473E+04      0.3079485050E+05
          0                 3           4            73   15     1      -0.8479445831E-03      80   49    1        -0.1448050842E+02      0.1728036641E+02

    ------------------------------------------------
       NWT REQUIRED            3 OUTER ITERATIONS 
       AND A TOTAL OF         25 INNER ITERATIONS.
    ------------------------------------------------

 NO OUTPUT CONTROL FOR STRESS PERIOD   11   TIME STEP    8
 
 SOLVING FOR HEAD 
                                                   Max.-Head-Change                         Max.-Flux-Residual
  Residual-Control   Outer-Iter.   Inner-Iter.     Column Row Layer    Maximum-Head-Change  Column Row Layer    Maximum-Flux-Residual          L2-NORM 
          0                 1          11            70   19     2       0.9379644297E+00      79   48    1        -0.3300943264E+05      0.2893067967E+06
          0                 2          10            70   19     2      -0.8454063946E-01      79   48    1         0.3290644158E+04      0.2890317760E+05
          0                 3           4            73   15     1      -0.8397864768E-03      80   49    1         0.3929185968E+02      0.4059758085E+02

    ------------------------------------------------
       NWT REQUIRED            3 OUTER ITERATIONS 
       AND A TOTAL OF         25 INNER ITERATIONS.
    ------------------------------------------------

 NO OUTPUT CONTROL FOR STRESS PERIOD   11   TIME STEP    9

 INTERPOLATION FOR HEAD OBS# 1012, ID 2643-11-275  CHANGED BECAUSE AT LEAST ONE
 NEIGHBORING CELL REQUIRED FOR INTERPOLATION IS DRY OR INACTIVE (OBS2BAS7SE)

 INTERPOLATION FOR HEAD OBS# 3710, ID 1471-11-278  CHANGED BECAUSE AT LEAST ONE
 NEIGHBORING CELL REQUIRED FOR INTERPOLATION IS DRY OR INACTIVE (OBS2BAS7SE)
 
 SOLVING FOR HEAD 
                                                   Max.-Head-Change                         Max.-Flux-Residual
  Residual-Control   Outer-Iter.   Inner-Iter.     Column Row Layer    Maximum-Head-Change  Column Row Layer    Maximum-Flux-Residual          L2-NORM 
          0                 1          11            70   19     2       0.8869692584E+00      79   48    1        -0.3122632349E+05      0.2829336568E+06
          0                 2          10            70   19     2      -0.7993067954E-01      79   48    1         0.3335515563E+04      0.2829179507E+05
          0                 3           5            73   15     1      -0.8311266609E-03      62  106    1         0.8903585285E+01      0.1552515799E+02

    ------------------------------------------------
       NWT REQUIRED            3 OUTER ITERATIONS 
       AND A TOTAL OF         26 INNER ITERATIONS.
    ------------------------------------------------

 NO OUTPUT CONTROL FOR STRESS PERIOD   11   TIME STEP   10
 
 SOLVING FOR HEAD 
                                                   Max.-Head-Change                         Max.-Flux-Residual
  Residual-Control   Outer-Iter.   Inner-Iter.     Column Row Layer    Maximum-Head-Change  Column Row Layer    Maximum-Flux-Residual          L2-NORM 
          0                 1          11            70   19     2       0.8404217498E+00      79   48    1        -0.2939494519E+05      0.2776485153E+06
          0                 2          10            65   44     1      -0.1041813463E+00      79   48    1         0.2934540603E+04      0.2777129404E+05
          0                 3           4            65   44     1       0.9147181611E-02      65   44    1         0.1166024536E+03      0.1270863679E+03

    ------------------------------------------------
       NWT REQUIRED            3 OUTER ITERATIONS 
       AND A TOTAL OF         25 INNER ITERATIONS.
    ------------------------------------------------

 NO OUTPUT CONTROL FOR STRESS PERIOD   11   TIME STEP   11
 
 SOLVING FOR HEAD 
                                                   Max.-Head-Change                         Max.-Flux-Residual
  Residual-Control   Outer-Iter.   Inner-Iter.     Column Row Layer    Maximum-Head-Change  Column Row Layer    Maximum-Flux-Residual          L2-NORM 
          0                 1          11            73   15     3       0.8213010999E+00      79   48    1        -0.2749128172E+05      0.2731542479E+06
          0                 2          10            73   15     3      -0.7296544386E-01      79   48    1         0.2744830135E+04      0.2729935770E+05
          0                 3           4            66    8     3      -0.1807674240E-02      66    8    3        -0.3055469254E+02      0.3857284629E+02

    ------------------------------------------------
       NWT REQUIRED            3 OUTER ITERATIONS 
       AND A TOTAL OF         25 INNER ITERATIONS.
    ------------------------------------------------

 OUTPUT CONTROL FOR STRESS PERIOD   11   TIME STEP   12
    SAVE BUDGET
    SAVE HEAD FOR LAYERS:   1  2  3
 UBDSV1 SAVING "         STORAGE" ON UNIT  39 AT TIME STEP 12, STRESS PERIOD  11
 UBDSV2 SAVING "   CONSTANT HEAD" ON UNIT  39 AT TIME STEP 12, STRESS PERIOD  11
 UBDSV1 SAVING "FLOW RIGHT FACE " ON UNIT  39 AT TIME STEP 12, STRESS PERIOD  11
 UBDSV1 SAVING "FLOW FRONT FACE " ON UNIT  39 AT TIME STEP 12, STRESS PERIOD  11
 UBDSV1 SAVING "FLOW LOWER FACE " ON UNIT  39 AT TIME STEP 12, STRESS PERIOD  11
 UBDSV4 SAVING "           WELLS" ON UNIT  39 AT TIME STEP 12, STRESS PERIOD  11
 UBDSV3 SAVING "              ET" ON UNIT  39 AT TIME STEP 12, STRESS PERIOD  11
 UBDSV3 SAVING "        RECHARGE" ON UNIT  39 AT TIME STEP 12, STRESS PERIOD  11

 HEAD WILL BE SAVED ON UNIT   31 AT END OF TIME STEP   12, STRESS PERIOD   11
1
  VOLUMETRIC BUDGET FOR ENTIRE MODEL AT END OF TIME STEP   12, STRESS PERIOD  11
  ------------------------------------------------------------------------------

     CUMULATIVE VOLUMES      L**3       RATES FOR THIS TIME STEP      L**3/T
     ------------------                 ------------------------

           IN:                                      IN:
           ---                                      ---
             STORAGE = 26349617152.0000               STORAGE =    10174865.0000
       CONSTANT HEAD =  4788622336.0000         CONSTANT HEAD =     1198658.5000
               WELLS =  4924631040.0000                 WELLS =     1225642.0000
                  ET =           0.0000                    ET =           0.0000
            RECHARGE = 48446349312.0000              RECHARGE =    13690261.0000

            TOTAL IN = 84509212672.0000              TOTAL IN =    26289428.0000

          OUT:                                     OUT:
          ----                                     ----
             STORAGE =  3753388800.0000               STORAGE =     1657759.5000
       CONSTANT HEAD = 13482434560.0000         CONSTANT HEAD =     3944571.0000
               WELLS = 62239846400.0000                 WELLS =    20139292.0000
                  ET =  5033706496.0000                    ET =      547809.1250
            RECHARGE =           0.0000              RECHARGE =           0.0000

           TOTAL OUT = 84509368320.0000             TOTAL OUT =    26289432.0000

            IN - OUT =     -155648.0000              IN - OUT =          -4.0000

 PERCENT DISCREPANCY =          -0.00     PERCENT DISCREPANCY =          -0.00






         TIME SUMMARY AT END OF TIME STEP   12 IN STRESS PERIOD   11
                    SECONDS     MINUTES      HOURS       DAYS        YEARS
                    -----------------------------------------------------------
   TIME STEP LENGTH 2.62800E+06  43800.      730.00      30.417     8.32763E-02
 STRESS PERIOD TIME 3.15360E+07 5.25600E+05  8760.0      365.00     0.99932    
         TOTAL TIME 3.47156E+08 5.78593E+06  96432.      4018.0      11.001    
1
1
                            STRESS PERIOD NO.   12, LENGTH =   365.0000    
                            -----------------------------------------------

                              NUMBER OF TIME STEPS =    12

                               MULTIPLIER FOR DELT =     1.000

                            INITIAL TIME STEP SIZE =   30.41667    

   1330 WELLS

 REUSING SURF FROM LAST STRESS PERIOD

 REUSING EVTR FROM LAST STRESS PERIOD

 REUSING EXDP FROM LAST STRESS PERIOD



                           RECHARGE
 READING ON UNIT   16 WITH FORMAT: (15F5.0)            


     63 TIME-VARIANT SPECIFIED-HEAD CELLS
 
 SOLVING FOR HEAD 
                                                   Max.-Head-Change                         Max.-Flux-Residual
  Residual-Control   Outer-Iter.   Inner-Iter.     Column Row Layer    Maximum-Head-Change  Column Row Layer    Maximum-Flux-Residual          L2-NORM 
          0                 1          12            65    2     2      -0.2946988702E+02      23   20    2        -0.2543119199E+06      0.1122518224E+07
          0                 2          11            72   48     3       0.2348359039E+01      23   20    2         0.2543119239E+05      0.1108626372E+06
          0                 3           7            65    7     2       0.7080603209E-01      15   38    3         0.2793713073E+03      0.5623753313E+03
          0                 4           5            65    2     2       0.3178787752E-02      16   38    3        -0.1973434973E+02      0.2539917051E+02

    ------------------------------------------------
       NWT REQUIRED            4 OUTER ITERATIONS 
       AND A TOTAL OF         35 INNER ITERATIONS.
    ------------------------------------------------

 NO OUTPUT CONTROL FOR STRESS PERIOD   12   TIME STEP    1
 
 SOLVING FOR HEAD 
                                                   Max.-Head-Change                         Max.-Flux-Residual
  Residual-Control   Outer-Iter.   Inner-Iter.     Column Row Layer    Maximum-Head-Change  Column Row Layer    Maximum-Flux-Residual          L2-NORM 
          0                 1          12            72   48     3      -0.7871104521E+01      72   48    1         0.8144229202E+05      0.6425430694E+06
          0                 2          10            72   48     3       0.7155297973E+00      34   20    2         0.9158022166E+04      0.6473132108E+05
          0                 3           7            34   20     1      -0.8692117048E-01      34   20    1        -0.4556158366E+04      0.4576899251E+04
          0                 4           5            34   20     1      -0.7831657105E-02      34   20    1        -0.4103911296E+03      0.4104178043E+03

    ------------------------------------------------
       NWT REQUIRED            4 OUTER ITERATIONS 
       AND A TOTAL OF         34 INNER ITERATIONS.
    ------------------------------------------------

 NO OUTPUT CONTROL FOR STRESS PERIOD   12   TIME STEP    2
 
 SOLVING FOR HEAD 
                                                   Max.-Head-Change                         Max.-Flux-Residual
  Residual-Control   Outer-Iter.   Inner-Iter.     Column Row Layer    Maximum-Head-Change  Column Row Layer    Maximum-Flux-Residual          L2-NORM 
          0                 1          11            72   48     3      -0.3590141549E+01      72   48    1         0.6727495499E+05      0.5343375111E+06
          0                 2          10            72   48     3       0.3274653118E+00      72   48    1        -0.6766916777E+04      0.5403093086E+05
          0                 3           6            34   20     1       0.2433070085E-01      34   20    1         0.5402860446E+03      0.6284945149E+03
          0                 4           2            64   45     1       0.6645529654E-04      64   45    1         0.4518956967E+01      0.4708581220E+01

    ------------------------------------------------
       NWT REQUIRED            4 OUTER ITERATIONS 
       AND A TOTAL OF         29 INNER ITERATIONS.
    ------------------------------------------------

 NO OUTPUT CONTROL FOR STRESS PERIOD   12   TIME STEP    3

 INTERPOLATION FOR HEAD OBS# 6997, ID 683-12-102   CHANGED BECAUSE AT LEAST ONE
 NEIGHBORING CELL REQUIRED FOR INTERPOLATION IS DRY OR INACTIVE (OBS2BAS7SE)
 
 SOLVING FOR HEAD 
                                                   Max.-Head-Change                         Max.-Flux-Residual
  Residual-Control   Outer-Iter.   Inner-Iter.     Column Row Layer    Maximum-Head-Change  Column Row Layer    Maximum-Flux-Residual          L2-NORM 
          0                 1          11            72   47     3      -0.2085672207E+01      72   48    1         0.5582555845E+05      0.4841735286E+06
          0                 2          10            72   47     3       0.1896059612E+00      56   36    2         0.8484366103E+04      0.4912180749E+05
          0                 3           5            69  101     1       0.3760956171E-02      55   49    1         0.9192596391E+02      0.1148202965E+03

    ------------------------------------------------
       NWT REQUIRED            3 OUTER ITERATIONS 
       AND A TOTAL OF         26 INNER ITERATIONS.
    ------------------------------------------------

 NO OUTPUT CONTROL FOR STRESS PERIOD   12   TIME STEP    4
 
 SOLVING FOR HEAD 
                                                   Max.-Head-Change                         Max.-Flux-Residual
  Residual-Control   Outer-Iter.   Inner-Iter.     Column Row Layer    Maximum-Head-Change  Column Row Layer    Maximum-Flux-Residual          L2-NORM 
          0                 1          11            72   47     3      -0.1477889831E+01      72   48    1         0.4663562773E+05      0.4549039773E+06
          0                 2          10            72   47     3       0.1342955805E+00      72   48    1        -0.4682897519E+04      0.4564802833E+05
          0                 3           6            16   40     3       0.2336449893E-02      16   40    3         0.1227210758E+03      0.1233314350E+03

    ------------------------------------------------
       NWT REQUIRED            3 OUTER ITERATIONS 
       AND A TOTAL OF         27 INNER ITERATIONS.
    ------------------------------------------------

 NO OUTPUT CONTROL FOR STRESS PERIOD   12   TIME STEP    5
 
 SOLVING FOR HEAD 
                                                   Max.-Head-Change                         Max.-Flux-Residual
  Residual-Control   Outer-Iter.   Inner-Iter.     Column Row Layer    Maximum-Head-Change  Column Row Layer    Maximum-Flux-Residual          L2-NORM 
          0                 1          11            81   45     1       0.1238994203E+01      81   46    1         0.4068777887E+05      0.4355483966E+06
          0                 2          10            16   40     3       0.2171271098E+00      16   40    3         0.1383325028E+05      0.4611735197E+05
          0                 3           6            22   30     1       0.1359318971E-01      22   30    1         0.3128547118E+03      0.4020479997E+03
          0                 4           3            61   75     1      -0.2450063086E-04      61   75    1        -0.2653031617E+01      0.2807731975E+01

    ------------------------------------------------
       NWT REQUIRED            4 OUTER ITERATIONS 
       AND A TOTAL OF         30 INNER ITERATIONS.
    ------------------------------------------------

 NO OUTPUT CONTROL FOR STRESS PERIOD   12   TIME STEP    6
 
 SOLVING FOR HEAD 
                                                   Max.-Head-Change                         Max.-Flux-Residual
  Residual-Control   Outer-Iter.   Inner-Iter.     Column Row Layer    Maximum-Head-Change  Column Row Layer    Maximum-Flux-Residual          L2-NORM 
          0                 1          11            81   46     1       0.1168987402E+01      81   46    1         0.3760834134E+05      0.4216820291E+06
          0                 2          10            32   35     1      -0.4670244090E+00      16   39    3         0.5233849033E+04      0.4257716667E+05
          0                 3           5            32   35     1       0.4021923788E-01      32   35    1         0.2479445778E+03      0.2700961209E+03
          0                 4           2            32   35     1       0.1927245896E-03      32   35    1         0.1107228404E+01      0.1243362602E+01

    ------------------------------------------------
       NWT REQUIRED            4 OUTER ITERATIONS 
       AND A TOTAL OF         28 INNER ITERATIONS.
    ------------------------------------------------

 NO OUTPUT CONTROL FOR STRESS PERIOD   12   TIME STEP    7
 
 SOLVING FOR HEAD 
                                                   Max.-Head-Change                         Max.-Flux-Residual
  Residual-Control   Outer-Iter.   Inner-Iter.     Column Row Layer    Maximum-Head-Change  Column Row Layer    Maximum-Flux-Residual          L2-NORM 
          0                 1          11            32   35     1      -0.1153536384E+01      81   46    1         0.3654394963E+05      0.4119102515E+06
          0                 2          10            34   34     1      -0.2209997932E+00      81   46    1        -0.3656460401E+04      0.4134867192E+05
          0                 3           6            34   34     1       0.1951938015E-01      16   39    2         0.3467099076E+03      0.4311757112E+03
          0                 4           2            34   34     1       0.5014367509E-04      58   76    2        -0.7020979784E+00      0.8558817053E+00

    ------------------------------------------------
       NWT REQUIRED            4 OUTER ITERATIONS 
       AND A TOTAL OF         29 INNER ITERATIONS.
    ------------------------------------------------

 NO OUTPUT CONTROL FOR STRESS PERIOD   12   TIME STEP    8

 INTERPOLATION FOR HEAD OBS# 1242, ID 2789-12-271  CHANGED BECAUSE AT LEAST ONE
 NEIGHBORING CELL REQUIRED FOR INTERPOLATION IS DRY OR INACTIVE (OBS2BAS7SE)
 
 SOLVING FOR HEAD 
                                                   Max.-Head-Change                         Max.-Flux-Residual
  Residual-Control   Outer-Iter.   Inner-Iter.     Column Row Layer    Maximum-Head-Change  Column Row Layer    Maximum-Flux-Residual          L2-NORM 
          0                 1          11            81   46     1       0.1101416796E+01      81   46    1         0.3548382657E+05      0.4042184006E+06
          0                 2          10            39   31     1      -0.7522256273E+00      39   31    1        -0.3735578703E+04      0.4056996116E+05
          0                 3           5            39   31     1       0.6447583386E-01      39   31    1         0.3528084078E+03      0.3611413655E+03
          0                 4           2            39   31     1       0.3355551257E-03      39   31    1         0.1775032846E+01      0.1796242504E+01

    ------------------------------------------------
       NWT REQUIRED            4 OUTER ITERATIONS 
       AND A TOTAL OF         28 INNER ITERATIONS.
    ------------------------------------------------

 NO OUTPUT CONTROL FOR STRESS PERIOD   12   TIME STEP    9
 
 SOLVING FOR HEAD 
                                                   Max.-Head-Change                         Max.-Flux-Residual
  Residual-Control   Outer-Iter.   Inner-Iter.     Column Row Layer    Maximum-Head-Change  Column Row Layer    Maximum-Flux-Residual          L2-NORM 
          0                 1          11            81   46     1       0.1068145348E+01      81   46    1         0.3443207296E+05      0.3982725183E+06
          0                 2          10            81   46     1      -0.9714737388E-01      81   46    1        -0.3445123970E+04      0.3993231044E+05
          0                 3           5            30    6     2       0.1774914415E-02      30    6    2         0.1786917950E+02      0.2653384924E+02

    ------------------------------------------------
       NWT REQUIRED            3 OUTER ITERATIONS 
       AND A TOTAL OF         26 INNER ITERATIONS.
    ------------------------------------------------

 NO OUTPUT CONTROL FOR STRESS PERIOD   12   TIME STEP   10

 INTERPOLATION FOR HEAD OBS# 6266, ID 987-12-324   CHANGED BECAUSE AT LEAST ONE
 NEIGHBORING CELL REQUIRED FOR INTERPOLATION IS DRY OR INACTIVE (OBS2BAS7SE)
 
 SOLVING FOR HEAD 
                                                   Max.-Head-Change                         Max.-Flux-Residual
  Residual-Control   Outer-Iter.   Inner-Iter.     Column Row Layer    Maximum-Head-Change  Column Row Layer    Maximum-Flux-Residual          L2-NORM 
          0                 1          11            81   46     1       0.1035347456E+01      81   46    1         0.3339219013E+05      0.3933470255E+06
          0                 2          10            22   31     1      -0.1179524903E+00      81   46    1        -0.3341044274E+04      0.3942339405E+05
          0                 3           6            30   17     2       0.1057192053E-01      30   17    2         0.5332308998E+03      0.5852635255E+03
          0                 4           2            22   31     1       0.1639511272E-04      66    8    3         0.2025532655E+02      0.2026110097E+02

    ------------------------------------------------
       NWT REQUIRED            4 OUTER ITERATIONS 
       AND A TOTAL OF         29 INNER ITERATIONS.
    ------------------------------------------------

 NO OUTPUT CONTROL FOR STRESS PERIOD   12   TIME STEP   11
 
 SOLVING FOR HEAD 
                                                   Max.-Head-Change                         Max.-Flux-Residual
  Residual-Control   Outer-Iter.   Inner-Iter.     Column Row Layer    Maximum-Head-Change  Column Row Layer    Maximum-Flux-Residual          L2-NORM 
          0                 1          11            81   46     1       0.1003102031E+01      81   46    1         0.3236709838E+05      0.3892035584E+06
          0                 2          10            30   17     2       0.1414778418E+00      30   17    2         0.9795244969E+04      0.4022665154E+05
          0                 3           5            22   33     1       0.9676384961E-02      22   33    1         0.2189355007E+03      0.2840570091E+03

    ------------------------------------------------
       NWT REQUIRED            3 OUTER ITERATIONS 
       AND A TOTAL OF         26 INNER ITERATIONS.
    ------------------------------------------------

 OUTPUT CONTROL FOR STRESS PERIOD   12   TIME STEP   12
    SAVE BUDGET
 UBDSV1 SAVING "         STORAGE" ON UNIT  39 AT TIME STEP 12, STRESS PERIOD  12
 UBDSV2 SAVING "   CONSTANT HEAD" ON UNIT  39 AT TIME STEP 12, STRESS PERIOD  12
 UBDSV1 SAVING "FLOW RIGHT FACE " ON UNIT  39 AT TIME STEP 12, STRESS PERIOD  12
 UBDSV1 SAVING "FLOW FRONT FACE " ON UNIT  39 AT TIME STEP 12, STRESS PERIOD  12
 UBDSV1 SAVING "FLOW LOWER FACE " ON UNIT  39 AT TIME STEP 12, STRESS PERIOD  12
 UBDSV4 SAVING "           WELLS" ON UNIT  39 AT TIME STEP 12, STRESS PERIOD  12
 UBDSV3 SAVING "              ET" ON UNIT  39 AT TIME STEP 12, STRESS PERIOD  12
 UBDSV3 SAVING "        RECHARGE" ON UNIT  39 AT TIME STEP 12, STRESS PERIOD  12
1
  VOLUMETRIC BUDGET FOR ENTIRE MODEL AT END OF TIME STEP   12, STRESS PERIOD  12
  ------------------------------------------------------------------------------

     CUMULATIVE VOLUMES      L**3       RATES FOR THIS TIME STEP      L**3/T
     ------------------                 ------------------------

           IN:                                      IN:
           ---                                      ---
             STORAGE = 32928077824.0000               STORAGE =    17512942.0000
       CONSTANT HEAD =  5267986944.0000         CONSTANT HEAD =     1349545.2500
               WELLS =  5371987968.0000                 WELLS =     1225642.0000
                  ET =           0.0000                    ET =           0.0000
            RECHARGE = 52908171264.0000              RECHARGE =    12224163.0000

            TOTAL IN = 96476225536.0000              TOTAL IN =    32312292.0000

          OUT:                                     OUT:
          ----                                     ----
             STORAGE =  4171332608.0000               STORAGE =      600934.4375
       CONSTANT HEAD = 14905995264.0000         CONSTANT HEAD =     3857894.5000
               WELLS = 72086765568.0000                 WELLS =    26977902.0000
                  ET =  5312282112.0000                    ET =      875726.1250
            RECHARGE =           0.0000              RECHARGE =           0.0000

           TOTAL OUT = 96476381184.0000             TOTAL OUT =    32312456.0000

            IN - OUT =     -155648.0000              IN - OUT =        -164.0000

 PERCENT DISCREPANCY =          -0.00     PERCENT DISCREPANCY =          -0.00






         TIME SUMMARY AT END OF TIME STEP   12 IN STRESS PERIOD   12
                    SECONDS     MINUTES      HOURS       DAYS        YEARS
                    -----------------------------------------------------------
   TIME STEP LENGTH 2.62800E+06  43800.      730.00      30.417     8.32763E-02
 STRESS PERIOD TIME 3.15360E+07 5.25600E+05  8760.0      365.00     0.99932    
         TOTAL TIME 3.78691E+08 6.31152E+06 1.05192E+05  4383.0      12.000    
1
1
                            STRESS PERIOD NO.   13, LENGTH =   366.0000    
                            -----------------------------------------------

                              NUMBER OF TIME STEPS =    12

                               MULTIPLIER FOR DELT =     1.000

                            INITIAL TIME STEP SIZE =   30.50000    

   1472 WELLS

 REUSING SURF FROM LAST STRESS PERIOD

 REUSING EVTR FROM LAST STRESS PERIOD

 REUSING EXDP FROM LAST STRESS PERIOD



                           RECHARGE
 READING ON UNIT   16 WITH FORMAT: (15F5.0)            


     63 TIME-VARIANT SPECIFIED-HEAD CELLS
 
 SOLVING FOR HEAD 
                                                   Max.-Head-Change                         Max.-Flux-Residual
  Residual-Control   Outer-Iter.   Inner-Iter.     Column Row Layer    Maximum-Head-Change  Column Row Layer    Maximum-Flux-Residual          L2-NORM 
          0                 1          12            92   77     2      -0.1350126601E+02      23   46    3        -0.3109441575E+06      0.8818863615E+06
          0                 2          11            92   77     2       0.1670391615E+01      23   46    3         0.2322120452E+05      0.8613915739E+05
          0                 3           7            56   36     1       0.1137213940E+00      16   41    3         0.7466797034E+03      0.1392297155E+04
          0                 4           6            92   77     2       0.5084108522E-02      66    8    3        -0.3181032247E+03      0.3248405546E+03

    ------------------------------------------------
       NWT REQUIRED            4 OUTER ITERATIONS 
       AND A TOTAL OF         36 INNER ITERATIONS.
    ------------------------------------------------

 NO OUTPUT CONTROL FOR STRESS PERIOD   13   TIME STEP    1
 
 SOLVING FOR HEAD 
                                                   Max.-Head-Change                         Max.-Flux-Residual
  Residual-Control   Outer-Iter.   Inner-Iter.     Column Row Layer    Maximum-Head-Change  Column Row Layer    Maximum-Flux-Residual          L2-NORM 
          0                 1          12            23   46     2      -0.2820714784E+01      59  103    1        -0.7707392230E+05      0.5366292385E+06
          0                 2          10            23   46     2       0.2467654951E+00      59  103    1         0.7430030754E+04      0.5381593238E+05
          0                 3           6            16   38     2       0.1392523130E-01      66    8    3        -0.4578213986E+03      0.5904078551E+03
          0                 4           4            21   45     3      -0.5921658102E-04      66    8    3        -0.4575970153E+03      0.4576095062E+03

    ------------------------------------------------
       NWT REQUIRED            4 OUTER ITERATIONS 
       AND A TOTAL OF         32 INNER ITERATIONS.
    ------------------------------------------------

 NO OUTPUT CONTROL FOR STRESS PERIOD   13   TIME STEP    2
 
 SOLVING FOR HEAD 
                                                   Max.-Head-Change                         Max.-Flux-Residual
  Residual-Control   Outer-Iter.   Inner-Iter.     Column Row Layer    Maximum-Head-Change  Column Row Layer    Maximum-Flux-Residual          L2-NORM 
          0                 1          11            23   46     2      -0.2069439035E+01      59  103    1        -0.4519769553E+05      0.4955649163E+06
          0                 2          10            23   46     2       0.1834367266E+00      59  103    1         0.4424668290E+04      0.4991007503E+05
          0                 3           6            16   41     2       0.1007577327E-01      66    8    3        -0.5871632184E+03      0.6994482570E+03
          0                 4           2            66    8     3      -0.1446044559E-04      66    8    3        -0.5868725122E+03      0.5868726941E+03

    ------------------------------------------------
       NWT REQUIRED            4 OUTER ITERATIONS 
       AND A TOTAL OF         29 INNER ITERATIONS.
    ------------------------------------------------

 NO OUTPUT CONTROL FOR STRESS PERIOD   13   TIME STEP    3
 
 SOLVING FOR HEAD 
                                                   Max.-Head-Change                         Max.-Flux-Residual
  Residual-Control   Outer-Iter.   Inner-Iter.     Column Row Layer    Maximum-Head-Change  Column Row Layer    Maximum-Flux-Residual          L2-NORM 
          0                 1          11            23   46     2      -0.1644940403E+01      23   46    2        -0.3021215172E+05      0.4788018573E+06
          0                 2          10            18   47     3       0.2039018021E+00      18   47    3         0.9744502581E+04      0.4943893030E+05
          0                 3           6            18   47     2      -0.1460500749E-01      18   47    2        -0.7269917885E+03      0.1250323272E+04
          0                 4           4            18   47     2      -0.1314873194E-02      66    8    3        -0.7085174663E+03      0.7115335562E+03

    ------------------------------------------------
       NWT REQUIRED            4 OUTER ITERATIONS 
       AND A TOTAL OF         31 INNER ITERATIONS.
    ------------------------------------------------

 NO OUTPUT CONTROL FOR STRESS PERIOD   13   TIME STEP    4
 
 SOLVING FOR HEAD 
                                                   Max.-Head-Change                         Max.-Flux-Residual
  Residual-Control   Outer-Iter.   Inner-Iter.     Column Row Layer    Maximum-Head-Change  Column Row Layer    Maximum-Flux-Residual          L2-NORM 
          0                 1          11            23   46     2      -0.1387281970E+01      37   28    1        -0.2578175781E+05      0.4697824276E+06
          0                 2          10            18   47     2      -0.3808400952E+00      18   47    2        -0.8551618964E+04      0.4821223600E+05
          0                 3           7            18   47     2       0.3421929675E-01      18   47    2         0.8443961946E+03      0.1347071221E+04
          0                 4           2            18   47     2       0.3511549493E-04      66    8    3        -0.8241483372E+03      0.8241492469E+03

    ------------------------------------------------
       NWT REQUIRED            4 OUTER ITERATIONS 
       AND A TOTAL OF         30 INNER ITERATIONS.
    ------------------------------------------------

 NO OUTPUT CONTROL FOR STRESS PERIOD   13   TIME STEP    5
 
 SOLVING FOR HEAD 
                                                   Max.-Head-Change                         Max.-Flux-Residual
  Residual-Control   Outer-Iter.   Inner-Iter.     Column Row Layer    Maximum-Head-Change  Column Row Layer    Maximum-Flux-Residual          L2-NORM 
          0                 1          11            23   46     2      -0.1216604991E+01      37   28    1        -0.2332980273E+05      0.4642406195E+06
          0                 2          10            36   18     2      -0.1378594383E+01      19   24    2         0.1035146657E+05      0.4922448333E+05
          0                 3           7            36   18     2       0.1124287972E+00      18   20    1        -0.2181168475E+04      0.2450826162E+04
          0                 4           5            18   20     1      -0.2413031971E-02      66    8    3        -0.9351952799E+03      0.9555903419E+03
          0                 5           4            18   20     1      -0.2169719776E-03      66    8    3        -0.9347108561E+03      0.9348776881E+03
          0                 6           3            66    8     3      -0.2301831508E-04      66    8    3        -0.9342246299E+03      0.9342261468E+03
          0                 7           2            66    8     3      -0.2300620020E-04      66    8    3        -0.9337357172E+03      0.9337359001E+03
          0                 8           2            66    8     3      -0.2299401779E-04      66    8    3        -0.9332440235E+03      0.9332441956E+03
          0                 9           2            66    8     3      -0.2298176686E-04      66    8    3        -0.9327495590E+03      0.9327497308E+03
          0                10           2            66    8     3      -0.2296944739E-04      66    8    3        -0.9322523272E+03      0.9322524990E+03
                                                   Max.-Head-Change                         Max.-Flux-Residual
  Residual-Control   Outer-Iter.   Inner-Iter.     Column Row Layer    Maximum-Head-Change  Column Row Layer    Maximum-Flux-Residual          L2-NORM 
          0                11           2            66    8     3      -0.2295706039E-04      66    8    3        -0.9317523326E+03      0.9317525043E+03
          0                12           2            66    8     3      -0.2294460586E-04      66    8    3        -0.9312495813E+03      0.9312497529E+03
          0                13           2            66    8     3      -0.2293208230E-04      66    8    3        -0.9307440795E+03      0.9307442511E+03
          0                14           2            66    8     3      -0.2291949221E-04      66    8    3        -0.9302358339E+03      0.9302360053E+03
          0                15           2            66    8     3      -0.2290683509E-04      66    8    3        -0.9297248507E+03      0.9297250220E+03
          0                16           2            66    8     3      -0.2289411044E-04      66    8    3        -0.9292111365E+03      0.9292113077E+03
          0                17           2            66    8     3      -0.2288131926E-04      66    8    3        -0.9286946977E+03      0.9286948689E+03
          0                18           2            66    8     3      -0.2286846055E-04      66    8    3        -0.9281755410E+03      0.9281757121E+03
          0                19           2            66    8     3      -0.2285553531E-04      66    8    3        -0.9276536729E+03      0.9276538439E+03
          0                20           2            66    8     3      -0.2284254304E-04      66    8    3        -0.9271291000E+03      0.9271292709E+03
                                                   Max.-Head-Change                         Max.-Flux-Residual
  Residual-Control   Outer-Iter.   Inner-Iter.     Column Row Layer    Maximum-Head-Change  Column Row Layer    Maximum-Flux-Residual          L2-NORM 
          0                21           2            66    8     3      -0.2282948475E-04      66    8    3        -0.9266018290E+03      0.9266019998E+03
          0                22           2            66    8     3      -0.2281636092E-04      66    8    3        -0.9260718665E+03      0.9260720372E+03
          0                23           2            66    8     3      -0.2280317056E-04      66    8    3        -0.9255392191E+03      0.9255393897E+03
          0                24           2            66    8     3      -0.2278991468E-04      66    8    3        -0.9250038936E+03      0.9250040641E+03
          0                25           2            66    8     3      -0.2277659276E-04      66    8    3        -0.9244658967E+03      0.9244660671E+03
          0                26           2            66    8     3      -0.2276320532E-04      66    8    3        -0.9239252352E+03      0.9239254055E+03
          0                27           2            66    8     3      -0.2274975235E-04      66    8    3        -0.9233819159E+03      0.9233820861E+03
          0                28           2            66    8     3      -0.2273623484E-04      66    8    3        -0.9228359456E+03      0.9228361157E+03
          0                29           2            66    8     3      -0.2272265181E-04      66    8    3        -0.9222873311E+03      0.9222875012E+03
          0                30           2            66    8     3      -0.2270900375E-04      66    8    3        -0.9217360794E+03      0.9217362494E+03
                                                   Max.-Head-Change                         Max.-Flux-Residual
  Residual-Control   Outer-Iter.   Inner-Iter.     Column Row Layer    Maximum-Head-Change  Column Row Layer    Maximum-Flux-Residual          L2-NORM 
          0                31           2            66    8     3      -0.2269529067E-04      66    8    3        -0.9211821973E+03      0.9211823671E+03
          0                32           2            66    8     3      -0.2268151355E-04      66    8    3        -0.9206256918E+03      0.9206258615E+03
          0                33           2            66    8     3      -0.2266767291E-04      66    8    3        -0.9200665698E+03      0.9200667394E+03
          0                34           2            66    8     3      -0.2265376723E-04      66    8    3        -0.9195048382E+03      0.9195050078E+03
          0                35           2            66    8     3      -0.2263979753E-04      66    8    3        -0.9189405042E+03      0.9189406737E+03
          0                36           2            66    8     3      -0.2262576430E-04      66    8    3        -0.9183735747E+03      0.9183737441E+03
          0                37           2            66    8     3      -0.2261166704E-04      66    8    3        -0.9178040568E+03      0.9178042260E+03
          0                38           2            66    8     3      -0.2259750675E-04      66    8    3        -0.9172319575E+03      0.9172321267E+03
          0                39           2            66    8     3      -0.2258328294E-04      66    8    3        -0.9166572841E+03      0.9166574532E+03
          0                40           2            66    8     3      -0.2256899559E-04      66    8    3        -0.9160800436E+03      0.9160802125E+03
                                                   Max.-Head-Change                         Max.-Flux-Residual
  Residual-Control   Outer-Iter.   Inner-Iter.     Column Row Layer    Maximum-Head-Change  Column Row Layer    Maximum-Flux-Residual          L2-NORM 
          0                41           2            66    8     3      -0.2255464622E-04      66    8    3        -0.9155002431E+03      0.9155004119E+03
          0                42           2            66    8     3      -0.2254023332E-04      66    8    3        -0.9149178899E+03      0.9149180586E+03
          0                43           2            66    8     3      -0.2252575790E-04      66    8    3        -0.9143329911E+03      0.9143331598E+03
          0                44           2            66    8     3      -0.2251122094E-04      66    8    3        -0.9137455541E+03      0.9137457226E+03
          0                45           2            66    8     3      -0.2249662046E-04      66    8    3        -0.9131555859E+03      0.9131557544E+03
          0                46           2            66    8     3      -0.2248195895E-04      66    8    3        -0.9125630940E+03      0.9125632624E+03
          0                47           2            66    8     3      -0.2246723442E-04      66    8    3        -0.9119680857E+03      0.9119682539E+03
          0                48           2            66    8     3      -0.2245244935E-04      66    8    3        -0.9113705682E+03      0.9113707363E+03
          0                49           2            66    8     3      -0.2243760226E-04      66    8    3        -0.9107705489E+03      0.9107707170E+03
          0                50           2            66    8     3      -0.2242269414E-04      66    8    3        -0.9101680352E+03      0.9101682031E+03
                                                   Max.-Head-Change                         Max.-Flux-Residual
  Residual-Control   Outer-Iter.   Inner-Iter.     Column Row Layer    Maximum-Head-Change  Column Row Layer    Maximum-Flux-Residual          L2-NORM 
          0                51           2            66    8     3      -0.2240772449E-04      66    8    3        -0.9095630345E+03      0.9095632023E+03
          0                52           2            66    8     3      -0.2239269432E-04      66    8    3        -0.9089555541E+03      0.9089557218E+03
          0                53           2            66    8     3      -0.2237760312E-04      66    8    3        -0.9083456016E+03      0.9083457692E+03
          0                54           2            66    8     3      -0.2236245189E-04      66    8    3        -0.9077331844E+03      0.9077333519E+03
          0                55           2            66    8     3      -0.2234723964E-04      66    8    3        -0.9071183099E+03      0.9071184773E+03
          0                56           2            66    8     3      -0.2233196686E-04      66    8    3        -0.9065009858E+03      0.9065011531E+03
          0                57           2            66    8     3      -0.2231663405E-04      66    8    3        -0.9058812195E+03      0.9058813867E+03
          0                58           2            66    8     3      -0.2230124222E-04      66    8    3        -0.9052590186E+03      0.9052591856E+03
          0                59           2            66    8     3      -0.2228578986E-04      66    8    3        -0.9046343906E+03      0.9046345575E+03
          0                60           2            66    8     3      -0.2227027897E-04      66    8    3        -0.9040073431E+03      0.9040075100E+03
                                                   Max.-Head-Change                         Max.-Flux-Residual
  Residual-Control   Outer-Iter.   Inner-Iter.     Column Row Layer    Maximum-Head-Change  Column Row Layer    Maximum-Flux-Residual          L2-NORM 
          0                61           2            66    8     3      -0.2225470806E-04      66    8    3        -0.9033778838E+03      0.9033780506E+03
          0                62           2            66    8     3      -0.2223907862E-04      66    8    3        -0.9027460203E+03      0.9027461870E+03
          0                63           2            66    8     3      -0.2222338965E-04      66    8    3        -0.9021117603E+03      0.9021119268E+03
          0                64           2            66    8     3      -0.2220764266E-04      66    8    3        -0.9014751114E+03      0.9014752778E+03
          0                65           2            66    8     3      -0.2219183614E-04      66    8    3        -0.9008360813E+03      0.9008362476E+03
          0                66           2            66    8     3      -0.2217597260E-04      66    8    3        -0.9001946777E+03      0.9001948439E+03
          0                67           2            66    8     3      -0.2216005003E-04      66    8    3        -0.8995509085E+03      0.8995510745E+03
          0                68           2            66    8     3      -0.2214406994E-04      66    8    3        -0.8989047812E+03      0.8989049472E+03
          0                69           2            66    8     3      -0.2212803132E-04      66    8    3        -0.8982563038E+03      0.8982564696E+03
          0                70           2            66    8     3      -0.2211193567E-04      66    8    3        -0.8976054840E+03      0.8976056497E+03
                                                   Max.-Head-Change                         Max.-Flux-Residual
  Residual-Control   Outer-Iter.   Inner-Iter.     Column Row Layer    Maximum-Head-Change  Column Row Layer    Maximum-Flux-Residual          L2-NORM 
          0                71           2            66    8     3      -0.2209578300E-04      66    8    3        -0.8969523297E+03      0.8969524953E+03
          0                72           2            66    8     3      -0.2207957280E-04      66    8    3        -0.8962968486E+03      0.8962970140E+03
          0                73           2            66    8     3      -0.2206330558E-04      66    8    3        -0.8956390486E+03      0.8956392139E+03
          0                74           2            66    8     3      -0.2204698183E-04      66    8    3        -0.8949789376E+03      0.8949791028E+03
          0                75           2            66    8     3      -0.2203060156E-04      66    8    3        -0.8943165235E+03      0.8943166886E+03
          0                76           4            66    8     3      -0.3263568107E-01      66    8    3        -0.8936529808E+03      0.8936531458E+03
          0                77           3            66    8     3       0.2965980172E-02      66    8    3         0.1066201977E+03      0.1154873783E+03

    ------------------------------------------------
       NWT REQUIRED           77 OUTER ITERATIONS 
       AND A TOTAL OF        185 INNER ITERATIONS.
    ------------------------------------------------

 NO OUTPUT CONTROL FOR STRESS PERIOD   13   TIME STEP    6
 
 SOLVING FOR HEAD 
                                                   Max.-Head-Change                         Max.-Flux-Residual
  Residual-Control   Outer-Iter.   Inner-Iter.     Column Row Layer    Maximum-Head-Change  Column Row Layer    Maximum-Flux-Residual          L2-NORM 
          0                 1          11            23   46     2      -0.1100308229E+01      36   27    1        -0.2225092226E+05      0.4598283746E+06
          0                 2          10            18   20     1      -0.1957626329E+00      18   20    1        -0.7797837454E+04      0.4765146641E+05
          0                 3           6            18   20     1       0.2158860994E-01      18   20    1         0.9600211888E+03      0.1180647682E+04
          0                 4           4            19   20     1      -0.1471532622E-03      19   20    1        -0.1509601909E+02      0.1583705361E+02

    ------------------------------------------------
       NWT REQUIRED            4 OUTER ITERATIONS 
       AND A TOTAL OF         31 INNER ITERATIONS.
    ------------------------------------------------

 NO OUTPUT CONTROL FOR STRESS PERIOD   13   TIME STEP    7
 
 SOLVING FOR HEAD 
                                                   Max.-Head-Change                         Max.-Flux-Residual
  Residual-Control   Outer-Iter.   Inner-Iter.     Column Row Layer    Maximum-Head-Change  Column Row Layer    Maximum-Flux-Residual          L2-NORM 
          0                 1          11            23   46     2      -0.1015916300E+01      32   27    1        -0.2194086238E+05      0.4565511968E+06
          0                 2          10            80   61     1      -0.3823495990E+00      16   42    2        -0.6016801371E+04      0.4651046940E+05
          0                 3           6            16   33     2       0.3082116389E-01      16   42    2         0.5951806255E+03      0.8112128609E+03
          0                 4           3            80   61     1       0.5508708030E-03      80   61    1         0.8041074239E+00      0.1208088611E+01

    ------------------------------------------------
       NWT REQUIRED            4 OUTER ITERATIONS 
       AND A TOTAL OF         30 INNER ITERATIONS.
    ------------------------------------------------

 NO OUTPUT CONTROL FOR STRESS PERIOD   13   TIME STEP    8
 
 SOLVING FOR HEAD 
                                                   Max.-Head-Change                         Max.-Flux-Residual
  Residual-Control   Outer-Iter.   Inner-Iter.     Column Row Layer    Maximum-Head-Change  Column Row Layer    Maximum-Flux-Residual          L2-NORM 
          0                 1          11            23   46     2      -0.9515332668E+00      32   27    1        -0.2179893896E+05      0.4539131721E+06
          0                 2          10            37   22     1      -0.4277759847E+00      37   22    1        -0.7591281223E+04      0.4665661042E+05
          0                 3           6            37   22     1       0.3823536426E-01      49   34    1        -0.1140439879E+04      0.1471224536E+04
          0                 4           4            49   34     1      -0.1372171278E-02      49   34    1        -0.1026581457E+03      0.1026815134E+03

    ------------------------------------------------
       NWT REQUIRED            4 OUTER ITERATIONS 
       AND A TOTAL OF         31 INNER ITERATIONS.
    ------------------------------------------------

 NO OUTPUT CONTROL FOR STRESS PERIOD   13   TIME STEP    9
 
 SOLVING FOR HEAD 
                                                   Max.-Head-Change                         Max.-Flux-Residual
  Residual-Control   Outer-Iter.   Inner-Iter.     Column Row Layer    Maximum-Head-Change  Column Row Layer    Maximum-Flux-Residual          L2-NORM 
          0                 1          11            23   46     2      -0.9006409209E+00      32   27    1        -0.2166851000E+05      0.4517295800E+06
          0                 2          10            22   32     2       0.1248028121E+00      22   32    2         0.5059594090E+04      0.4567051185E+05
          0                 3           6            49   34     1       0.1117305552E-01      49   34    1         0.4498190855E+03      0.4720960326E+03
          0                 4           2            49   34     1       0.1030812066E-04      49   34    1         0.3702104986E+00      0.4005916204E+00

    ------------------------------------------------
       NWT REQUIRED            4 OUTER ITERATIONS 
       AND A TOTAL OF         29 INNER ITERATIONS.
    ------------------------------------------------

 NO OUTPUT CONTROL FOR STRESS PERIOD   13   TIME STEP   10
 
 SOLVING FOR HEAD 
                                                   Max.-Head-Change                         Max.-Flux-Residual
  Residual-Control   Outer-Iter.   Inner-Iter.     Column Row Layer    Maximum-Head-Change  Column Row Layer    Maximum-Flux-Residual          L2-NORM 
          0                 1          11            23   46     2      -0.8592136079E+00      32   27    1        -0.2154395954E+05      0.4498011913E+06
          0                 2          10            24    7     1      -0.3188766355E+00      22   25    2         0.8996950932E+04      0.4637118831E+05
          0                 3           7            22   25     1      -0.4454332603E-01      22   25    1        -0.3252870277E+04      0.3318215260E+04
          0                 4           5            22   25     1      -0.4010777299E-02      22   25    1        -0.2928311678E+03      0.2928427798E+03

    ------------------------------------------------
       NWT REQUIRED            4 OUTER ITERATIONS 
       AND A TOTAL OF         33 INNER ITERATIONS.
    ------------------------------------------------

 NO OUTPUT CONTROL FOR STRESS PERIOD   13   TIME STEP   11
 
 SOLVING FOR HEAD 
                                                   Max.-Head-Change                         Max.-Flux-Residual
  Residual-Control   Outer-Iter.   Inner-Iter.     Column Row Layer    Maximum-Head-Change  Column Row Layer    Maximum-Flux-Residual          L2-NORM 
          0                 1          11            23   46     2      -0.8247444049E+00      32   27    1        -0.2142185134E+05      0.4479126473E+06
          0                 2          10            22   25     1      -0.2561960774E+00      22   25    1        -0.9022465725E+04      0.4627520086E+05
          0                 3           6            22   25     1       0.2305602182E-01      22   25    1         0.8912091711E+03      0.9343159521E+03
          0                 4           2            22   25     1       0.2168531574E-04      22   25    1         0.7464097142E+00      0.7964846519E+00

    ------------------------------------------------
       NWT REQUIRED            4 OUTER ITERATIONS 
       AND A TOTAL OF         29 INNER ITERATIONS.
    ------------------------------------------------

 OUTPUT CONTROL FOR STRESS PERIOD   13   TIME STEP   12
    SAVE BUDGET
 UBDSV1 SAVING "         STORAGE" ON UNIT  39 AT TIME STEP 12, STRESS PERIOD  13
 UBDSV2 SAVING "   CONSTANT HEAD" ON UNIT  39 AT TIME STEP 12, STRESS PERIOD  13
 UBDSV1 SAVING "FLOW RIGHT FACE " ON UNIT  39 AT TIME STEP 12, STRESS PERIOD  13
 UBDSV1 SAVING "FLOW FRONT FACE " ON UNIT  39 AT TIME STEP 12, STRESS PERIOD  13
 UBDSV1 SAVING "FLOW LOWER FACE " ON UNIT  39 AT TIME STEP 12, STRESS PERIOD  13
 UBDSV4 SAVING "           WELLS" ON UNIT  39 AT TIME STEP 12, STRESS PERIOD  13
 UBDSV3 SAVING "              ET" ON UNIT  39 AT TIME STEP 12, STRESS PERIOD  13
 UBDSV3 SAVING "        RECHARGE" ON UNIT  39 AT TIME STEP 12, STRESS PERIOD  13
1
  VOLUMETRIC BUDGET FOR ENTIRE MODEL AT END OF TIME STEP   12, STRESS PERIOD  13
  ------------------------------------------------------------------------------

     CUMULATIVE VOLUMES      L**3       RATES FOR THIS TIME STEP      L**3/T
     ------------------                 ------------------------

           IN:                                      IN:
           ---                                      ---
             STORAGE = 40860413952.0000               STORAGE =    21502810.0000
       CONSTANT HEAD =  5786648064.0000         CONSTANT HEAD =     1441823.2500
               WELLS =  5820573696.0000                 WELLS =     1225642.0000
                  ET =           0.0000                    ET =           0.0000
            RECHARGE = 57380708352.0000              RECHARGE =    12220105.0000

            TOTAL IN =109848346624.0000              TOTAL IN =    36390380.0000

          OUT:                                     OUT:
          ----                                     ----
             STORAGE =  4272494080.0000               STORAGE =      166491.7500
       CONSTANT HEAD = 16302051328.0000         CONSTANT HEAD =     3803759.7500
               WELLS = 83666681856.0000                 WELLS =    31639220.0000
                  ET =  5607342592.0000                    ET =      780913.5000
            RECHARGE =           0.0000              RECHARGE =           0.0000

           TOTAL OUT =109848567808.0000             TOTAL OUT =    36390384.0000

            IN - OUT =     -221184.0000              IN - OUT =          -4.0000

 PERCENT DISCREPANCY =          -0.00     PERCENT DISCREPANCY =          -0.00






         TIME SUMMARY AT END OF TIME STEP   12 IN STRESS PERIOD   13
                    SECONDS     MINUTES      HOURS       DAYS        YEARS
                    -----------------------------------------------------------
   TIME STEP LENGTH 2.63520E+06  43920.      732.00      30.500     8.35044E-02
 STRESS PERIOD TIME 3.16224E+07 5.27040E+05  8784.0      366.00      1.0021    
         TOTAL TIME 4.10314E+08 6.83856E+06 1.13976E+05  4749.0      13.002    
1
1
                            STRESS PERIOD NO.   14, LENGTH =   365.0000    
                            -----------------------------------------------

                              NUMBER OF TIME STEPS =    12

                               MULTIPLIER FOR DELT =     1.000

                            INITIAL TIME STEP SIZE =   30.41667    

   1546 WELLS

 REUSING SURF FROM LAST STRESS PERIOD

 REUSING EVTR FROM LAST STRESS PERIOD

 REUSING EXDP FROM LAST STRESS PERIOD



                           RECHARGE
 READING ON UNIT   16 WITH FORMAT: (15F5.0)            


     63 TIME-VARIANT SPECIFIED-HEAD CELLS
 
 SOLVING FOR HEAD 
                                                   Max.-Head-Change                         Max.-Flux-Residual
  Residual-Control   Outer-Iter.   Inner-Iter.     Column Row Layer    Maximum-Head-Change  Column Row Layer    Maximum-Flux-Residual          L2-NORM 
          0                 1          12            92   77     2      -0.1484996176E+02      63   95    1        -0.1498648936E+06      0.7036908413E+06
          0                 2          10            32   62     2       0.1129070887E+01      32   62    2         0.6077880353E+05      0.9245488620E+05
          0                 3           7            32   61     2       0.7981257969E-01      32   61    2         0.2303338486E+04      0.2405702147E+04
          0                 4           4            92   77     2       0.1443009259E-02      32   61    2        -0.1591481333E+02      0.2267112483E+02

    ------------------------------------------------
       NWT REQUIRED            4 OUTER ITERATIONS 
       AND A TOTAL OF         33 INNER ITERATIONS.
    ------------------------------------------------

 NO OUTPUT CONTROL FOR STRESS PERIOD   14   TIME STEP    1
 
 SOLVING FOR HEAD 
                                                   Max.-Head-Change                         Max.-Flux-Residual
  Residual-Control   Outer-Iter.   Inner-Iter.     Column Row Layer    Maximum-Head-Change  Column Row Layer    Maximum-Flux-Residual          L2-NORM 
          0                 1          11            72   48     3      -0.3121764616E+01      81   45    1        -0.7392777850E+05      0.5428097682E+06
          0                 2          10            72   48     3       0.2837935995E+00      32   61    2         0.9430819596E+04      0.5516165404E+05
          0                 3           6            32   62     1       0.1314281026E-01      32   62    2        -0.2589836141E+03      0.3699350058E+03
          0                 4           2            92   77     2       0.2888490679E-04      32   61    2        -0.1863567958E+01      0.2031124250E+01

    ------------------------------------------------
       NWT REQUIRED            4 OUTER ITERATIONS 
       AND A TOTAL OF         29 INNER ITERATIONS.
    ------------------------------------------------

 NO OUTPUT CONTROL FOR STRESS PERIOD   14   TIME STEP    2
 
 SOLVING FOR HEAD 
                                                   Max.-Head-Change                         Max.-Flux-Residual
  Residual-Control   Outer-Iter.   Inner-Iter.     Column Row Layer    Maximum-Head-Change  Column Row Layer    Maximum-Flux-Residual          L2-NORM 
          0                 1          11            32   62     1      -0.2918303287E+01      81   46    1        -0.7050485173E+05      0.5054020193E+06
          0                 2          10            32   62     1       0.2571690446E+00      81   46    1         0.7042960813E+04      0.5074404477E+05
          0                 3           6            31   37     1       0.5940384757E-03      32   62    1         0.6901840530E+01      0.2289617057E+02

    ------------------------------------------------
       NWT REQUIRED            3 OUTER ITERATIONS 
       AND A TOTAL OF         27 INNER ITERATIONS.
    ------------------------------------------------

 NO OUTPUT CONTROL FOR STRESS PERIOD   14   TIME STEP    3
 
 SOLVING FOR HEAD 
                                                   Max.-Head-Change                         Max.-Flux-Residual
  Residual-Control   Outer-Iter.   Inner-Iter.     Column Row Layer    Maximum-Head-Change  Column Row Layer    Maximum-Flux-Residual          L2-NORM 
          0                 1          11            81   46     1      -0.2121787943E+01      81   46    1        -0.6839993851E+05      0.4884353846E+06
          0                 2          10            32   61     1      -0.7448704564E+00      32   61    1        -0.9277380760E+04      0.4968618091E+05
          0                 3           6            32   61     1       0.6991787302E-01      32   61    1         0.9725239749E+03      0.1003473146E+04
          0                 4           3            32   61     1       0.1491652862E-03      33   61    1        -0.4379688352E+01      0.5083636126E+01

    ------------------------------------------------
       NWT REQUIRED            4 OUTER ITERATIONS 
       AND A TOTAL OF         30 INNER ITERATIONS.
    ------------------------------------------------

 NO OUTPUT CONTROL FOR STRESS PERIOD   14   TIME STEP    4
 
 SOLVING FOR HEAD 
                                                   Max.-Head-Change                         Max.-Flux-Residual
  Residual-Control   Outer-Iter.   Inner-Iter.     Column Row Layer    Maximum-Head-Change  Column Row Layer    Maximum-Flux-Residual          L2-NORM 
          0                 1          11            81   46     1      -0.2057229383E+01      81   46    1        -0.6633876378E+05      0.4778330937E+06
          0                 2          10            38   33     2       0.1910279645E+00      81   46    1         0.6626777696E+04      0.4811427658E+05
          0                 3           6            35   21     2       0.9759229094E-02      35   21    2         0.3546257927E+03      0.3554660929E+03

    ------------------------------------------------
       NWT REQUIRED            3 OUTER ITERATIONS 
       AND A TOTAL OF         27 INNER ITERATIONS.
    ------------------------------------------------

 NO OUTPUT CONTROL FOR STRESS PERIOD   14   TIME STEP    5
 
 SOLVING FOR HEAD 
                                                   Max.-Head-Change                         Max.-Flux-Residual
  Residual-Control   Outer-Iter.   Inner-Iter.     Column Row Layer    Maximum-Head-Change  Column Row Layer    Maximum-Flux-Residual          L2-NORM 
          0                 1          11            81   46     1      -0.1994049892E+01      81   46    1        -0.6431947889E+05      0.4705940859E+06
          0                 2          10            60   41     1      -0.7217279837E+00      81   46    1         0.1198827251E+05      0.4962522352E+05
          0                 3           7            60   41     1       0.6195668440E-01      15   28    2        -0.1918917011E+04      0.1970621835E+04
          0                 4           5            15   28     2      -0.2879748572E-02      15   28    2        -0.1727446659E+03      0.1727586980E+03

    ------------------------------------------------
       NWT REQUIRED            4 OUTER ITERATIONS 
       AND A TOTAL OF         33 INNER ITERATIONS.
    ------------------------------------------------

 NO OUTPUT CONTROL FOR STRESS PERIOD   14   TIME STEP    6
 
 SOLVING FOR HEAD 
                                                   Max.-Head-Change                         Max.-Flux-Residual
  Residual-Control   Outer-Iter.   Inner-Iter.     Column Row Layer    Maximum-Head-Change  Column Row Layer    Maximum-Flux-Residual          L2-NORM 
          0                 1          11            81   46     1      -0.1651969756E+01      81   46    1        -0.5792995801E+05      0.4646264463E+06
          0                 2          10            15   28     2      -0.2411160671E+00      15   28    2        -0.6544635542E+04      0.4742254383E+05
          0                 3           6            15   28     2       0.2166206674E-01      15   28    2         0.6477913895E+03      0.8176993842E+03
          0                 4           3            15   28     2       0.2210959423E-04      15   28    2         0.5991755277E+00      0.7527071785E+00

    ------------------------------------------------
       NWT REQUIRED            4 OUTER ITERATIONS 
       AND A TOTAL OF         30 INNER ITERATIONS.
    ------------------------------------------------

 NO OUTPUT CONTROL FOR STRESS PERIOD   14   TIME STEP    7
 
 SOLVING FOR HEAD 
                                                   Max.-Head-Change                         Max.-Flux-Residual
  Residual-Control   Outer-Iter.   Inner-Iter.     Column Row Layer    Maximum-Head-Change  Column Row Layer    Maximum-Flux-Residual          L2-NORM 
          0                 1          11            81   46     1      -0.1473393247E+01      81   46    1        -0.5164666798E+05      0.4600991926E+06
          0                 2          10            31   36     1      -0.9136175440E+00      33   63    2         0.6470453952E+04      0.4667639202E+05
          0                 3           6            31   36     1       0.7835460200E-01      31   36    1         0.4369932454E+03      0.4748964244E+03
          0                 4           2            31   36     1       0.4113265638E-03      24    6    1        -0.5062942788E+01      0.5574608825E+01

    ------------------------------------------------
       NWT REQUIRED            4 OUTER ITERATIONS 
       AND A TOTAL OF         29 INNER ITERATIONS.
    ------------------------------------------------

 NO OUTPUT CONTROL FOR STRESS PERIOD   14   TIME STEP    8
 
 SOLVING FOR HEAD 
                                                   Max.-Head-Change                         Max.-Flux-Residual
  Residual-Control   Outer-Iter.   Inner-Iter.     Column Row Layer    Maximum-Head-Change  Column Row Layer    Maximum-Flux-Residual          L2-NORM 
          0                 1          11            31   36     1      -0.2300550047E+01      81   46    1        -0.4606297122E+05      0.4565887900E+06
          0                 2          10            24    6     1      -0.2683158136E+00      81   46    1         0.4603484196E+04      0.4576296317E+05
          0                 3           6            24    6     1       0.2380948176E-01      24    6    1         0.3201669817E+03      0.3991073526E+03
          0                 4           2            24    6     1       0.5170820831E-04      24    6    1         0.6607100144E+00      0.6821229645E+00

    ------------------------------------------------
       NWT REQUIRED            4 OUTER ITERATIONS 
       AND A TOTAL OF         29 INNER ITERATIONS.
    ------------------------------------------------

 NO OUTPUT CONTROL FOR STRESS PERIOD   14   TIME STEP    9
 
 SOLVING FOR HEAD 
                                                   Max.-Head-Change                         Max.-Flux-Residual
  Residual-Control   Outer-Iter.   Inner-Iter.     Column Row Layer    Maximum-Head-Change  Column Row Layer    Maximum-Flux-Residual          L2-NORM 
          0                 1          11            81   46     1      -0.1173469940E+01      81   46    1        -0.4109926647E+05      0.4538282928E+06
          0                 2          10            33   63     1      -0.3231305382E+00      30   38    2         0.6755870330E+04      0.4646489204E+05
          0                 3           6            33   63     1       0.2865983684E-01      33   63    1         0.3848468386E+03      0.4140391832E+03
          0                 4           3            30   38     1      -0.2090591502E-03      30   38    1        -0.1017674379E+02      0.1021102199E+02

    ------------------------------------------------
       NWT REQUIRED            4 OUTER ITERATIONS 
       AND A TOTAL OF         30 INNER ITERATIONS.
    ------------------------------------------------

 NO OUTPUT CONTROL FOR STRESS PERIOD   14   TIME STEP   10
 
 SOLVING FOR HEAD 
                                                   Max.-Head-Change                         Max.-Flux-Residual
  Residual-Control   Outer-Iter.   Inner-Iter.     Column Row Layer    Maximum-Head-Change  Column Row Layer    Maximum-Flux-Residual          L2-NORM 
          0                 1          11            81   46     1      -0.1047901151E+01      81   46    1        -0.3668541311E+05      0.4513375148E+06
          0                 2          10            30   38     1      -0.4552525896E+00      30   38    1        -0.7225751823E+04      0.4619178181E+05
          0                 3           6            30   38     1       0.4055928006E-01      30   38    1         0.7098152539E+03      0.1004421685E+04
          0                 4           3            30   38     1       0.6865886137E-04      30   38    1         0.1135409921E+01      0.1399140760E+01

    ------------------------------------------------
       NWT REQUIRED            4 OUTER ITERATIONS 
       AND A TOTAL OF         30 INNER ITERATIONS.
    ------------------------------------------------

 NO OUTPUT CONTROL FOR STRESS PERIOD   14   TIME STEP   11
 
 SOLVING FOR HEAD 
                                                   Max.-Head-Change                         Max.-Flux-Residual
  Residual-Control   Outer-Iter.   Inner-Iter.     Column Row Layer    Maximum-Head-Change  Column Row Layer    Maximum-Flux-Residual          L2-NORM 
          0                 1          11            81   46     1      -0.9361833068E+00      81   46    1        -0.3275946468E+05      0.4494006851E+06
          0                 2          10            33   59     1      -0.2813814312E+00      39   30    2         0.8690714323E+04      0.4595390148E+05
          0                 3           6            33   59     1       0.2505168513E-01      33   59    1         0.3920995422E+03      0.4299165661E+03
          0                 4           2            52  113     2       0.1274698310E-03      33   59    1         0.6930364072E+00      0.9947570746E+00

    ------------------------------------------------
       NWT REQUIRED            4 OUTER ITERATIONS 
       AND A TOTAL OF         29 INNER ITERATIONS.
    ------------------------------------------------

 OUTPUT CONTROL FOR STRESS PERIOD   14   TIME STEP   12
    SAVE BUDGET
 UBDSV1 SAVING "         STORAGE" ON UNIT  39 AT TIME STEP 12, STRESS PERIOD  14
 UBDSV2 SAVING "   CONSTANT HEAD" ON UNIT  39 AT TIME STEP 12, STRESS PERIOD  14
 UBDSV1 SAVING "FLOW RIGHT FACE " ON UNIT  39 AT TIME STEP 12, STRESS PERIOD  14
 UBDSV1 SAVING "FLOW FRONT FACE " ON UNIT  39 AT TIME STEP 12, STRESS PERIOD  14
 UBDSV1 SAVING "FLOW LOWER FACE " ON UNIT  39 AT TIME STEP 12, STRESS PERIOD  14
 UBDSV4 SAVING "           WELLS" ON UNIT  39 AT TIME STEP 12, STRESS PERIOD  14
 UBDSV3 SAVING "              ET" ON UNIT  39 AT TIME STEP 12, STRESS PERIOD  14
 UBDSV3 SAVING "        RECHARGE" ON UNIT  39 AT TIME STEP 12, STRESS PERIOD  14
1
  VOLUMETRIC BUDGET FOR ENTIRE MODEL AT END OF TIME STEP   12, STRESS PERIOD  14
  ------------------------------------------------------------------------------

     CUMULATIVE VOLUMES      L**3       RATES FOR THIS TIME STEP      L**3/T
     ------------------                 ------------------------

           IN:                                      IN:
           ---                                      ---
             STORAGE = 49317294080.0000               STORAGE =    22936910.0000
       CONSTANT HEAD =  6320455168.0000         CONSTANT HEAD =     1462008.2500
               WELLS =  6267930624.0000                 WELLS =     1225642.0000
                  ET =           0.0000                    ET =           0.0000
            RECHARGE = 61655310336.0000              RECHARGE =    11711238.0000

            TOTAL IN =123560984576.0000              TOTAL IN =    37335800.0000

          OUT:                                     OUT:
          ----                                     ----
             STORAGE =  4325945856.0000               STORAGE =       17271.4785
       CONSTANT HEAD = 17703243776.0000         CONSTANT HEAD =     3860883.2500
               WELLS = 95737036800.0000                 WELLS =    33069540.0000
                  ET =  5794964480.0000                    ET =      388105.1250
            RECHARGE =           0.0000              RECHARGE =           0.0000

           TOTAL OUT =123561197568.0000             TOTAL OUT =    37335800.0000

            IN - OUT =     -212992.0000              IN - OUT =           0.0000

 PERCENT DISCREPANCY =          -0.00     PERCENT DISCREPANCY =           0.00






         TIME SUMMARY AT END OF TIME STEP   12 IN STRESS PERIOD   14
                    SECONDS     MINUTES      HOURS       DAYS        YEARS
                    -----------------------------------------------------------
   TIME STEP LENGTH 2.62800E+06  43800.      730.00      30.417     8.32763E-02
 STRESS PERIOD TIME 3.15360E+07 5.25600E+05  8760.0      365.00     0.99932    
         TOTAL TIME 4.41850E+08 7.36416E+06 1.22736E+05  5114.0      14.001    
1
1
                            STRESS PERIOD NO.   15, LENGTH =   365.0000    
                            -----------------------------------------------

                              NUMBER OF TIME STEPS =    12

                               MULTIPLIER FOR DELT =     1.000

                            INITIAL TIME STEP SIZE =   30.41667    

   1626 WELLS

 REUSING SURF FROM LAST STRESS PERIOD

 REUSING EVTR FROM LAST STRESS PERIOD

 REUSING EXDP FROM LAST STRESS PERIOD



                           RECHARGE
 READING ON UNIT   16 WITH FORMAT: (15F5.0)            


     63 TIME-VARIANT SPECIFIED-HEAD CELLS
 
 SOLVING FOR HEAD 
                                                   Max.-Head-Change                         Max.-Flux-Residual
  Residual-Control   Outer-Iter.   Inner-Iter.     Column Row Layer    Maximum-Head-Change  Column Row Layer    Maximum-Flux-Residual          L2-NORM 
          0                 1          11            65    2     2       0.2190452098E+02      24   22    1         0.1165058315E+06      0.7731023308E+06
          0                 2          10            65    2     2      -0.7442224077E+00      24   22    1        -0.1207113761E+05      0.7831157290E+05
          0                 3           6            65    2     2      -0.4271849271E-01      61   83    2        -0.1092399774E+03      0.1762283282E+03
          0                 4           2            65    2     2      -0.2447455884E-02      65    2    2        -0.1084944599E+01      0.2473100574E+01

    ------------------------------------------------
       NWT REQUIRED            4 OUTER ITERATIONS 
       AND A TOTAL OF         29 INNER ITERATIONS.
    ------------------------------------------------

 NO OUTPUT CONTROL FOR STRESS PERIOD   15   TIME STEP    1
 
 SOLVING FOR HEAD 
                                                   Max.-Head-Change                         Max.-Flux-Residual
  Residual-Control   Outer-Iter.   Inner-Iter.     Column Row Layer    Maximum-Head-Change  Column Row Layer    Maximum-Flux-Residual          L2-NORM 
          0                 1          11            81   45     1       0.2693210584E+01      81   45    1         0.8347869953E+05      0.5548935661E+06
          0                 2          10            81   45     1      -0.2448143022E+00      81   45    1        -0.8357339377E+04      0.5668476163E+05
          0                 3           6            39   30     1       0.8837571833E-02      39   30    1         0.3261020537E+03      0.3815111031E+03

    ------------------------------------------------
       NWT REQUIRED            3 OUTER ITERATIONS 
       AND A TOTAL OF         27 INNER ITERATIONS.
    ------------------------------------------------

 NO OUTPUT CONTROL FOR STRESS PERIOD   15   TIME STEP    2
 
 SOLVING FOR HEAD 
                                                   Max.-Head-Change                         Max.-Flux-Residual
  Residual-Control   Outer-Iter.   Inner-Iter.     Column Row Layer    Maximum-Head-Change  Column Row Layer    Maximum-Flux-Residual          L2-NORM 
          0                 1          11            81   45     1       0.2355035336E+01      81   45    1         0.7295936965E+05      0.4815867392E+06
          0                 2          10            81   45     1      -0.2163359292E+00      17   43    3         0.7722510968E+04      0.4993827650E+05
          0                 3           6            75   94     1       0.6991547739E-02      86   51    1        -0.6416058595E+02      0.7626176140E+02

    ------------------------------------------------
       NWT REQUIRED            3 OUTER ITERATIONS 
       AND A TOTAL OF         27 INNER ITERATIONS.
    ------------------------------------------------

 NO OUTPUT CONTROL FOR STRESS PERIOD   15   TIME STEP    3
 
 SOLVING FOR HEAD 
                                                   Max.-Head-Change                         Max.-Flux-Residual
  Residual-Control   Outer-Iter.   Inner-Iter.     Column Row Layer    Maximum-Head-Change  Column Row Layer    Maximum-Flux-Residual          L2-NORM 
          0                 1          11            81   45     1       0.2056027231E+01      81   45    1         0.6373686976E+05      0.4448132367E+06
          0                 2          10            17   43     2      -0.2434450561E+00      28   41    2         0.7022673500E+04      0.4569788490E+05
          0                 3           6            17   43     2       0.2181732761E-01      17   43    2         0.4405256463E+03      0.5353587340E+03
          0                 4           4            23   29     1      -0.2429855025E-03      23   29    1        -0.1302597892E+02      0.1304442403E+02

    ------------------------------------------------
       NWT REQUIRED            4 OUTER ITERATIONS 
       AND A TOTAL OF         31 INNER ITERATIONS.
    ------------------------------------------------

 NO OUTPUT CONTROL FOR STRESS PERIOD   15   TIME STEP    4
 
 SOLVING FOR HEAD 
                                                   Max.-Head-Change                         Max.-Flux-Residual
  Residual-Control   Outer-Iter.   Inner-Iter.     Column Row Layer    Maximum-Head-Change  Column Row Layer    Maximum-Flux-Residual          L2-NORM 
          0                 1          11            81   45     1       0.1797517949E+01      81   45    1         0.5569830734E+05      0.4216017912E+06
          0                 2          10            23   29     1      -0.5649376893E+00      23   29    1        -0.1175449429E+05      0.4413664674E+05
          0                 3           6            23   29     1       0.5063965807E-01      23   29    1         0.1158736286E+04      0.1329139663E+04
          0                 4           4            34   21     1      -0.7923608196E-03      34   21    1        -0.4217022560E+02      0.4220986742E+02

    ------------------------------------------------
       NWT REQUIRED            4 OUTER ITERATIONS 
       AND A TOTAL OF         31 INNER ITERATIONS.
    ------------------------------------------------

 NO OUTPUT CONTROL FOR STRESS PERIOD   15   TIME STEP    5
 
 SOLVING FOR HEAD 
                                                   Max.-Head-Change                         Max.-Flux-Residual
  Residual-Control   Outer-Iter.   Inner-Iter.     Column Row Layer    Maximum-Head-Change  Column Row Layer    Maximum-Flux-Residual          L2-NORM 
          0                 1          11            38   33     1      -0.2221352141E+01      81   45    1         0.4870173420E+05      0.4058641147E+06
          0                 2          10            34   21     1      -0.2744294731E+00      34   21    1        -0.5570652747E+04      0.4137258378E+05
          0                 3           6            34   21     1       0.2458084386E-01      34   21    1         0.5490217241E+03      0.8024712763E+03
          0                 4           3            34   21     1       0.3304468476E-04      34   21    1         0.6838575751E+00      0.1079842865E+01

    ------------------------------------------------
       NWT REQUIRED            4 OUTER ITERATIONS 
       AND A TOTAL OF         30 INNER ITERATIONS.
    ------------------------------------------------

 NO OUTPUT CONTROL FOR STRESS PERIOD   15   TIME STEP    6
 
 SOLVING FOR HEAD 
                                                   Max.-Head-Change                         Max.-Flux-Residual
  Residual-Control   Outer-Iter.   Inner-Iter.     Column Row Layer    Maximum-Head-Change  Column Row Layer    Maximum-Flux-Residual          L2-NORM 
          0                 1          11            81   46     1       0.1450453181E+01      81   46    1         0.4666389494E+05      0.3943360290E+06
          0                 2          10            23    3     1      -0.1356021945E+00      81   46    1        -0.4669620353E+04      0.3956710316E+05
          0                 3           6            23    3     1       0.1196164145E-01      23    3    1         0.1343086503E+03      0.1442642802E+03
          0                 4           2            23    3     1       0.3240401675E-04      23    3    1         0.3314500675E+00      0.3463758499E+00

    ------------------------------------------------
       NWT REQUIRED            4 OUTER ITERATIONS 
       AND A TOTAL OF         29 INNER ITERATIONS.
    ------------------------------------------------

 NO OUTPUT CONTROL FOR STRESS PERIOD   15   TIME STEP    7
 
 SOLVING FOR HEAD 
                                                   Max.-Head-Change                         Max.-Flux-Residual
  Residual-Control   Outer-Iter.   Inner-Iter.     Column Row Layer    Maximum-Head-Change  Column Row Layer    Maximum-Flux-Residual          L2-NORM 
          0                 1          11            81   46     1       0.1408304660E+01      81   46    1         0.4534286618E+05      0.3855406908E+06
          0                 2          10            65  108     1      -0.2402580612E+00      81   46    1        -0.4537456898E+04      0.3875992140E+05
          0                 3           6            65  108     1       0.2061051961E-01      78   48    1        -0.1209057748E+03      0.1717959374E+03
          0                 4           2            66    8     3       0.1837944948E-03      66    8    3         0.6094043359E+01      0.6113581751E+01

    ------------------------------------------------
       NWT REQUIRED            4 OUTER ITERATIONS 
       AND A TOTAL OF         29 INNER ITERATIONS.
    ------------------------------------------------

 NO OUTPUT CONTROL FOR STRESS PERIOD   15   TIME STEP    8
 
 SOLVING FOR HEAD 
                                                   Max.-Head-Change                         Max.-Flux-Residual
  Residual-Control   Outer-Iter.   Inner-Iter.     Column Row Layer    Maximum-Head-Change  Column Row Layer    Maximum-Flux-Residual          L2-NORM 
          0                 1          11            81   46     1       0.1366450311E+01      81   46    1         0.4402560394E+05      0.3784986243E+06
          0                 2          10            81   46     1      -0.1242927240E+00      81   46    1        -0.4405630239E+04      0.3795078940E+05
          0                 3           6            25   11     1       0.6139698111E-02      25   11    1         0.1219497425E+03      0.1777353421E+03

    ------------------------------------------------
       NWT REQUIRED            3 OUTER ITERATIONS 
       AND A TOTAL OF         27 INNER ITERATIONS.
    ------------------------------------------------

 NO OUTPUT CONTROL FOR STRESS PERIOD   15   TIME STEP    9
 
 SOLVING FOR HEAD 
                                                   Max.-Head-Change                         Max.-Flux-Residual
  Residual-Control   Outer-Iter.   Inner-Iter.     Column Row Layer    Maximum-Head-Change  Column Row Layer    Maximum-Flux-Residual          L2-NORM 
          0                 1          11            81   46     1       0.1325035205E+01      81   46    1         0.4271753122E+05      0.3726918305E+06
          0                 2          10            16   36     2      -0.6584819337E+00      16   36    2        -0.7181900759E+04      0.3829766936E+05
          0                 3           6            16   36     2       0.6167436412E-01      16   36    2         0.7511757529E+03      0.8039331836E+03
          0                 4           3            16   36     2       0.1134847687E-03      17   36    2        -0.3125731280E+01      0.3550222732E+01

    ------------------------------------------------
       NWT REQUIRED            4 OUTER ITERATIONS 
       AND A TOTAL OF         30 INNER ITERATIONS.
    ------------------------------------------------

 NO OUTPUT CONTROL FOR STRESS PERIOD   15   TIME STEP   10
 
 SOLVING FOR HEAD 
                                                   Max.-Head-Change                         Max.-Flux-Residual
  Residual-Control   Outer-Iter.   Inner-Iter.     Column Row Layer    Maximum-Head-Change  Column Row Layer    Maximum-Flux-Residual          L2-NORM 
          0                 1          11            81   46     1       0.1284183933E+01      81   46    1         0.4142320166E+05      0.3679736998E+06
          0                 2          10            81   46     1      -0.1172221537E+00      19   23    2         0.6000027412E+04      0.3735040284E+05
          0                 3           6            58   97     2      -0.6940231904E-01      58   97    2        -0.2638048156E+04      0.2638598824E+04
          0                 4           3            58   97     2      -0.6251324681E-02      58   97    2        -0.2375653736E+03      0.2375728010E+03

    ------------------------------------------------
       NWT REQUIRED            4 OUTER ITERATIONS 
       AND A TOTAL OF         30 INNER ITERATIONS.
    ------------------------------------------------

 NO OUTPUT CONTROL FOR STRESS PERIOD   15   TIME STEP   11
 
 SOLVING FOR HEAD 
                                                   Max.-Head-Change                         Max.-Flux-Residual
  Residual-Control   Outer-Iter.   Inner-Iter.     Column Row Layer    Maximum-Head-Change  Column Row Layer    Maximum-Flux-Residual          L2-NORM 
          0                 1          11            81   46     1       0.1243238694E+01      81   46    1         0.4013219081E+05      0.3640517542E+06
          0                 2          10            58   97     2      -0.8920355121E+00      33   19    2         0.7174546333E+04      0.3783784501E+05
          0                 3           7            33   19     1      -0.1067270074E+00      33   19    1        -0.5297848074E+04      0.5339965555E+04
          0                 4           5            33   19     1      -0.9612452576E-02      33   19    1        -0.4770498835E+03      0.4770648831E+03

    ------------------------------------------------
       NWT REQUIRED            4 OUTER ITERATIONS 
       AND A TOTAL OF         33 INNER ITERATIONS.
    ------------------------------------------------

 OUTPUT CONTROL FOR STRESS PERIOD   15   TIME STEP   12
    SAVE BUDGET
 UBDSV1 SAVING "         STORAGE" ON UNIT  39 AT TIME STEP 12, STRESS PERIOD  15
 UBDSV2 SAVING "   CONSTANT HEAD" ON UNIT  39 AT TIME STEP 12, STRESS PERIOD  15
 UBDSV1 SAVING "FLOW RIGHT FACE " ON UNIT  39 AT TIME STEP 12, STRESS PERIOD  15
 UBDSV1 SAVING "FLOW FRONT FACE " ON UNIT  39 AT TIME STEP 12, STRESS PERIOD  15
 UBDSV1 SAVING "FLOW LOWER FACE " ON UNIT  39 AT TIME STEP 12, STRESS PERIOD  15
 UBDSV4 SAVING "           WELLS" ON UNIT  39 AT TIME STEP 12, STRESS PERIOD  15
 UBDSV3 SAVING "              ET" ON UNIT  39 AT TIME STEP 12, STRESS PERIOD  15
 UBDSV3 SAVING "        RECHARGE" ON UNIT  39 AT TIME STEP 12, STRESS PERIOD  15
1
  VOLUMETRIC BUDGET FOR ENTIRE MODEL AT END OF TIME STEP   12, STRESS PERIOD  15
  ------------------------------------------------------------------------------

     CUMULATIVE VOLUMES      L**3       RATES FOR THIS TIME STEP      L**3/T
     ------------------                 ------------------------

           IN:                                      IN:
           ---                                      ---
             STORAGE = 55231176704.0000               STORAGE =    15431944.0000
       CONSTANT HEAD =  6836992000.0000         CONSTANT HEAD =     1401627.1250
               WELLS =  6715287552.0000                 WELLS =     1225642.0000
                  ET =           0.0000                    ET =           0.0000
            RECHARGE = 69926412288.0000              RECHARGE =    22660606.0000

            TOTAL IN =138709860352.0000              TOTAL IN =    40719820.0000

          OUT:                                     OUT:
          ----                                     ----
             STORAGE =  5674510336.0000               STORAGE =     2669732.0000
       CONSTANT HEAD = 19155140608.0000         CONSTANT HEAD =     4041926.7500
               WELLS =107805425664.0000                 WELLS =    33064138.0000
                  ET =  6074996224.0000                    ET =      944071.3125
            RECHARGE =           0.0000              RECHARGE =           0.0000

           TOTAL OUT =138710073344.0000             TOTAL OUT =    40719868.0000

            IN - OUT =     -212992.0000              IN - OUT =         -48.0000

 PERCENT DISCREPANCY =          -0.00     PERCENT DISCREPANCY =          -0.00






         TIME SUMMARY AT END OF TIME STEP   12 IN STRESS PERIOD   15
                    SECONDS     MINUTES      HOURS       DAYS        YEARS
                    -----------------------------------------------------------
   TIME STEP LENGTH 2.62800E+06  43800.      730.00      30.417     8.32763E-02
 STRESS PERIOD TIME 3.15360E+07 5.25600E+05  8760.0      365.00     0.99932    
         TOTAL TIME 4.73385E+08 7.88976E+06 1.31496E+05  5479.0      15.001    
1
1
                            STRESS PERIOD NO.   16, LENGTH =   365.0000    
                            -----------------------------------------------

                              NUMBER OF TIME STEPS =    12

                               MULTIPLIER FOR DELT =     1.000

                            INITIAL TIME STEP SIZE =   30.41667    

   1653 WELLS

 REUSING SURF FROM LAST STRESS PERIOD

 REUSING EVTR FROM LAST STRESS PERIOD

 REUSING EXDP FROM LAST STRESS PERIOD



                           RECHARGE
 READING ON UNIT   16 WITH FORMAT: (15F5.0)            


     63 TIME-VARIANT SPECIFIED-HEAD CELLS
 
 SOLVING FOR HEAD 
                                                   Max.-Head-Change                         Max.-Flux-Residual
  Residual-Control   Outer-Iter.   Inner-Iter.     Column Row Layer    Maximum-Head-Change  Column Row Layer    Maximum-Flux-Residual          L2-NORM 
          0                 1          12            65    2     2       0.7768171911E+01      24   22    1        -0.1353718448E+06      0.6094802404E+06
          0                 2          10            63   83     2       0.3438728669E+00      63   83    1         0.1777892345E+05      0.6685286298E+05
          0                 3           7            91   52     3       0.2031244330E-01      33   19    1         0.2957904896E+03      0.5156986092E+03
          0                 4           3            65    2     2      -0.8609537683E-03      18   34    2        -0.1897509009E+01      0.2679889160E+01

    ------------------------------------------------
       NWT REQUIRED            4 OUTER ITERATIONS 
       AND A TOTAL OF         32 INNER ITERATIONS.
    ------------------------------------------------

 NO OUTPUT CONTROL FOR STRESS PERIOD   16   TIME STEP    1
 
 SOLVING FOR HEAD 
                                                   Max.-Head-Change                         Max.-Flux-Residual
  Residual-Control   Outer-Iter.   Inner-Iter.     Column Row Layer    Maximum-Head-Change  Column Row Layer    Maximum-Flux-Residual          L2-NORM 
          0                 1          11            81   45     1      -0.1225582721E+01      24   22    1        -0.5375805223E+05      0.4396955665E+06
          0                 2          10            33   35     3       0.2451721009E+00      24   22    1         0.5248554249E+04      0.4445497806E+05
          0                 3           6            59   89     2       0.2090784901E-01      59   89    2         0.2940632829E+03      0.4574788160E+03
          0                 4           3            33   61     1      -0.3290918699E-03      33   61    1        -0.1455891640E+02      0.1460196334E+02

    ------------------------------------------------
       NWT REQUIRED            4 OUTER ITERATIONS 
       AND A TOTAL OF         30 INNER ITERATIONS.
    ------------------------------------------------

 NO OUTPUT CONTROL FOR STRESS PERIOD   16   TIME STEP    2
 
 SOLVING FOR HEAD 
                                                   Max.-Head-Change                         Max.-Flux-Residual
  Residual-Control   Outer-Iter.   Inner-Iter.     Column Row Layer    Maximum-Head-Change  Column Row Layer    Maximum-Flux-Residual          L2-NORM 
          0                 1          11            81   45     1      -0.1066346822E+01      81   45    1        -0.3320833988E+05      0.4074966417E+06
          0                 2          10            33   61     1      -0.4328262872E+00      20   48    3         0.1018114115E+05      0.4333598013E+05
          0                 3           7            20   48     2      -0.8618311067E-01      20   48    2        -0.3945098461E+04      0.3995742640E+04
          0                 4           6            20   48     2      -0.7766309519E-02      20   48    2        -0.3553939063E+03      0.3554095788E+03

    ------------------------------------------------
       NWT REQUIRED            4 OUTER ITERATIONS 
       AND A TOTAL OF         34 INNER ITERATIONS.
    ------------------------------------------------

 NO OUTPUT CONTROL FOR STRESS PERIOD   16   TIME STEP    3
 
 SOLVING FOR HEAD 
                                                   Max.-Head-Change                         Max.-Flux-Residual
  Residual-Control   Outer-Iter.   Inner-Iter.     Column Row Layer    Maximum-Head-Change  Column Row Layer    Maximum-Flux-Residual          L2-NORM 
          0                 1          11            38   20     2      -0.9332635799E+00      81   45    1        -0.2889322141E+05      0.3927414676E+06
          0                 2          10            20   48     2      -0.3884592978E+00      27   41    2         0.7780696808E+04      0.4168235071E+05
          0                 3           6            20   48     2       0.3553104394E-01      20   48    2         0.7353781276E+03      0.7601622362E+03
          0                 4           3            20   48     2       0.4354980461E-04      21   48    2        -0.1222614087E+01      0.1504856159E+01

    ------------------------------------------------
       NWT REQUIRED            4 OUTER ITERATIONS 
       AND A TOTAL OF         30 INNER ITERATIONS.
    ------------------------------------------------

 NO OUTPUT CONTROL FOR STRESS PERIOD   16   TIME STEP    4
 
 SOLVING FOR HEAD 
                                                   Max.-Head-Change                         Max.-Flux-Residual
  Residual-Control   Outer-Iter.   Inner-Iter.     Column Row Layer    Maximum-Head-Change  Column Row Layer    Maximum-Flux-Residual          L2-NORM 
          0                 1          11            18   43     2      -0.1338351281E+01      12   10    1        -0.2725496388E+05      0.3834594340E+06
          0                 2          10            18   43     2       0.1172882678E+00      12   10    1         0.2658771571E+04      0.3836615463E+05
          0                 3           5            73   15     1      -0.7279059475E-03      18   43    2         0.2210651811E+01      0.1859949572E+02

    ------------------------------------------------
       NWT REQUIRED            3 OUTER ITERATIONS 
       AND A TOTAL OF         26 INNER ITERATIONS.
    ------------------------------------------------

 NO OUTPUT CONTROL FOR STRESS PERIOD   16   TIME STEP    5
 
 SOLVING FOR HEAD 
                                                   Max.-Head-Change                         Max.-Flux-Residual
  Residual-Control   Outer-Iter.   Inner-Iter.     Column Row Layer    Maximum-Head-Change  Column Row Layer    Maximum-Flux-Residual          L2-NORM 
          0                 1          11            73   15     3       0.7270903392E+00      12   10    1        -0.2732658006E+05      0.3770096354E+06
          0                 2          10            56  104     2      -0.1561335994E+00      20   49    3         0.4074355080E+04      0.3791932695E+05
          0                 3           6            56  104     2       0.1339655841E-01      56  104    2         0.7654967441E+02      0.8327124198E+02
          0                 4           2            56  104     2       0.6906312148E-04      56  104    2         0.3740260303E+00      0.4528545601E+00

    ------------------------------------------------
       NWT REQUIRED            4 OUTER ITERATIONS 
       AND A TOTAL OF         29 INNER ITERATIONS.
    ------------------------------------------------

 NO OUTPUT CONTROL FOR STRESS PERIOD   16   TIME STEP    6
 
 SOLVING FOR HEAD 
                                                   Max.-Head-Change                         Max.-Flux-Residual
  Residual-Control   Outer-Iter.   Inner-Iter.     Column Row Layer    Maximum-Head-Change  Column Row Layer    Maximum-Flux-Residual          L2-NORM 
          0                 1          11            73   15     3       0.7182284050E+00      12   11    1        -0.2740905192E+05      0.3717207588E+06
          0                 2          10            16   32     2      -0.2849810716E+00      49   34    1        -0.5635836871E+04      0.3815779815E+05
          0                 3           6            16   32     2       0.2540721106E-01      16   32    2         0.4487842612E+03      0.5706931757E+03
          0                 4           3            12    5     1      -0.1420767763E-03      12    5    1        -0.8393697560E+01      0.8429960600E+01

    ------------------------------------------------
       NWT REQUIRED            4 OUTER ITERATIONS 
       AND A TOTAL OF         30 INNER ITERATIONS.
    ------------------------------------------------

 NO OUTPUT CONTROL FOR STRESS PERIOD   16   TIME STEP    7
 
 SOLVING FOR HEAD 
                                                   Max.-Head-Change                         Max.-Flux-Residual
  Residual-Control   Outer-Iter.   Inner-Iter.     Column Row Layer    Maximum-Head-Change  Column Row Layer    Maximum-Flux-Residual          L2-NORM 
          0                 1          11            16   32     2      -0.8821873323E+00      12   11    1        -0.2762123704E+05      0.3673367053E+06
          0                 2          10            34   15     2      -0.1462325450E+00      12    5    1         0.4602416324E+04      0.3768852947E+05
          0                 3           6            12    5     1      -0.1404133960E-01      12    5    1        -0.8287238549E+03      0.9117292269E+03
          0                 4           3            12    5     1       0.3953401826E-03      12    5    1         0.2561183116E+02      0.2561617394E+02

    ------------------------------------------------
       NWT REQUIRED            4 OUTER ITERATIONS 
       AND A TOTAL OF         30 INNER ITERATIONS.
    ------------------------------------------------

 NO OUTPUT CONTROL FOR STRESS PERIOD   16   TIME STEP    8
 
 SOLVING FOR HEAD 
                                                   Max.-Head-Change                         Max.-Flux-Residual
  Residual-Control   Outer-Iter.   Inner-Iter.     Column Row Layer    Maximum-Head-Change  Column Row Layer    Maximum-Flux-Residual          L2-NORM 
          0                 1          11            34   15     2      -0.4261426056E+01      12   11    1        -0.2777411300E+05      0.3637474797E+06
          0                 2          10            30   36     1      -0.1957815576E+01      30   36    1        -0.1116059116E+05      0.3964439817E+05
          0                 3           6            30   36     1       0.1695326524E+00      12    5    1        -0.1480924355E+04      0.1886906374E+04
          0                 4           4            12    5     1       0.1909118298E-02      12    5    1         0.1235240363E+03      0.1236196150E+03

    ------------------------------------------------
       NWT REQUIRED            4 OUTER ITERATIONS 
       AND A TOTAL OF         31 INNER ITERATIONS.
    ------------------------------------------------

 NO OUTPUT CONTROL FOR STRESS PERIOD   16   TIME STEP    9

 INTERPOLATION FOR HEAD OBS# 6244, ID 1164-16-300  CHANGED BECAUSE AT LEAST ONE
 NEIGHBORING CELL REQUIRED FOR INTERPOLATION IS DRY OR INACTIVE (OBS2BAS7SE)
 
 SOLVING FOR HEAD 
                                                   Max.-Head-Change                         Max.-Flux-Residual
  Residual-Control   Outer-Iter.   Inner-Iter.     Column Row Layer    Maximum-Head-Change  Column Row Layer    Maximum-Flux-Residual          L2-NORM 
          0                 1          11            30   36     1      -0.1091903564E+01      12   11    1        -0.2788790600E+05      0.3605233026E+06
          0                 2          10            38   32     1      -0.1108533347E+01      23   30    1        -0.7119290898E+04      0.3823966940E+05
          0                 3           7            38   32     1       0.9346124614E-01      12    5    1        -0.2032177043E+04      0.2785053525E+04
          0                 4           5            12    5     1       0.3912421704E-02      12    5    1         0.2528464409E+03      0.2887331182E+03

    ------------------------------------------------
       NWT REQUIRED            4 OUTER ITERATIONS 
       AND A TOTAL OF         33 INNER ITERATIONS.
    ------------------------------------------------

 NO OUTPUT CONTROL FOR STRESS PERIOD   16   TIME STEP   10

 INTERPOLATION FOR HEAD OBS# 3498, ID 1501-16-309  CHANGED BECAUSE AT LEAST ONE
 NEIGHBORING CELL REQUIRED FOR INTERPOLATION IS DRY OR INACTIVE (OBS2BAS7SE)
 
 SOLVING FOR HEAD 
                                                   Max.-Head-Change                         Max.-Flux-Residual
  Residual-Control   Outer-Iter.   Inner-Iter.     Column Row Layer    Maximum-Head-Change  Column Row Layer    Maximum-Flux-Residual          L2-NORM 
          0                 1          11            30   37     1      -0.9065974223E+00      12   11    1        -0.2797572503E+05      0.3577913839E+06
          0                 2          10            31   35     1      -0.1632510604E+01      31   35    1        -0.1201357766E+05      0.3929154445E+05
          0                 3           7            31   35     1       0.1426180121E+00      12    5    1        -0.2474077048E+04      0.2816766432E+04
          0                 4           5            12    5     1       0.6009164059E-02      12    5    1         0.3879270712E+03      0.3879503558E+03

    ------------------------------------------------
       NWT REQUIRED            4 OUTER ITERATIONS 
       AND A TOTAL OF         33 INNER ITERATIONS.
    ------------------------------------------------

 NO OUTPUT CONTROL FOR STRESS PERIOD   16   TIME STEP   11

 INTERPOLATION FOR HEAD OBS# 1564, ID 2931-16-361  CHANGED BECAUSE AT LEAST ONE
 NEIGHBORING CELL REQUIRED FOR INTERPOLATION IS DRY OR INACTIVE (OBS2BAS7SE)

 INTERPOLATION FOR HEAD OBS# 6239, ID 1921-16-362  CHANGED BECAUSE AT LEAST ONE
 NEIGHBORING CELL REQUIRED FOR INTERPOLATION IS DRY OR INACTIVE (OBS2BAS7SE)
 
 SOLVING FOR HEAD 
                                                   Max.-Head-Change                         Max.-Flux-Residual
  Residual-Control   Outer-Iter.   Inner-Iter.     Column Row Layer    Maximum-Head-Change  Column Row Layer    Maximum-Flux-Residual          L2-NORM 
          0                 1          11            33   34     1      -0.1362037403E+01      12   11    1        -0.2804103837E+05      0.3555924332E+06
          0                 2          10            12    5     1       0.1735521661E+00      12    5    1         0.8033859526E+04      0.3693463213E+05
          0                 3           7            12    5     1      -0.4810413795E-01      12    5    1        -0.2826394652E+04      0.2858077818E+04
          0                 4           5            12    5     1       0.7997601598E-02      12    5    1         0.5157568478E+03      0.5182190800E+03

    ------------------------------------------------
       NWT REQUIRED            4 OUTER ITERATIONS 
       AND A TOTAL OF         33 INNER ITERATIONS.
    ------------------------------------------------

 OUTPUT CONTROL FOR STRESS PERIOD   16   TIME STEP   12
    SAVE BUDGET
    SAVE HEAD FOR LAYERS:   1  2  3
 UBDSV1 SAVING "         STORAGE" ON UNIT  39 AT TIME STEP 12, STRESS PERIOD  16
 UBDSV2 SAVING "   CONSTANT HEAD" ON UNIT  39 AT TIME STEP 12, STRESS PERIOD  16
 UBDSV1 SAVING "FLOW RIGHT FACE " ON UNIT  39 AT TIME STEP 12, STRESS PERIOD  16
 UBDSV1 SAVING "FLOW FRONT FACE " ON UNIT  39 AT TIME STEP 12, STRESS PERIOD  16
 UBDSV1 SAVING "FLOW LOWER FACE " ON UNIT  39 AT TIME STEP 12, STRESS PERIOD  16
 UBDSV4 SAVING "           WELLS" ON UNIT  39 AT TIME STEP 12, STRESS PERIOD  16
 UBDSV3 SAVING "              ET" ON UNIT  39 AT TIME STEP 12, STRESS PERIOD  16
 UBDSV3 SAVING "        RECHARGE" ON UNIT  39 AT TIME STEP 12, STRESS PERIOD  16

 INTERPOLATION FOR HEAD OBS# 3405, ID 1428-17-11   CHANGED BECAUSE AT LEAST ONE
 NEIGHBORING CELL REQUIRED FOR INTERPOLATION IS DRY OR INACTIVE (OBS2BAS7SE)

 INTERPOLATION FOR HEAD OBS# 5431, ID 846-17-5     CHANGED BECAUSE AT LEAST ONE
 NEIGHBORING CELL REQUIRED FOR INTERPOLATION IS DRY OR INACTIVE (OBS2BAS7SE)

 HEAD WILL BE SAVED ON UNIT   31 AT END OF TIME STEP   12, STRESS PERIOD   16
1
  VOLUMETRIC BUDGET FOR ENTIRE MODEL AT END OF TIME STEP   12, STRESS PERIOD  16
  ------------------------------------------------------------------------------

     CUMULATIVE VOLUMES      L**3       RATES FOR THIS TIME STEP      L**3/T
     ------------------                 ------------------------

           IN:                                      IN:
           ---                                      ---
             STORAGE = 60605472768.0000               STORAGE =    14282020.0000
       CONSTANT HEAD =  7337675264.0000         CONSTANT HEAD =     1375303.2500
               WELLS =  7162644480.0000                 WELLS =     1225642.0000
                  ET =           0.0000                    ET =           0.0000
            RECHARGE = 78903631872.0000              RECHARGE =    24594996.0000

            TOTAL IN =154009419776.0000              TOTAL IN =    41477960.0000

          OUT:                                     OUT:
          ----                                     ----
             STORAGE =  7066770432.0000               STORAGE =     3380584.0000
       CONSTANT HEAD = 20632111104.0000         CONSTANT HEAD =     4098344.2500
               WELLS =119940308992.0000                 WELLS =    33230532.0000
                  ET =  6370392064.0000                    ET =      768508.6875
            RECHARGE =           0.0000              RECHARGE =           0.0000

           TOTAL OUT =154009583616.0000             TOTAL OUT =    41477968.0000

            IN - OUT =     -163840.0000              IN - OUT =          -8.0000

 PERCENT DISCREPANCY =          -0.00     PERCENT DISCREPANCY =          -0.00






         TIME SUMMARY AT END OF TIME STEP   12 IN STRESS PERIOD   16
                    SECONDS     MINUTES      HOURS       DAYS        YEARS
                    -----------------------------------------------------------
   TIME STEP LENGTH 2.62800E+06  43800.      730.00      30.417     8.32763E-02
 STRESS PERIOD TIME 3.15360E+07 5.25600E+05  8760.0      365.00     0.99932    
         TOTAL TIME 5.04921E+08 8.41536E+06 1.40256E+05  5844.0      16.000    
1
1
                            STRESS PERIOD NO.   17, LENGTH =   366.0000    
                            -----------------------------------------------

                              NUMBER OF TIME STEPS =    12

                               MULTIPLIER FOR DELT =     1.000

                            INITIAL TIME STEP SIZE =   30.50000    

   1598 WELLS

 REUSING SURF FROM LAST STRESS PERIOD

 REUSING EVTR FROM LAST STRESS PERIOD

 REUSING EXDP FROM LAST STRESS PERIOD



                           RECHARGE
 READING ON UNIT   16 WITH FORMAT: (15F5.0)            


     63 TIME-VARIANT SPECIFIED-HEAD CELLS
 
 SOLVING FOR HEAD 
                                                   Max.-Head-Change                         Max.-Flux-Residual
  Residual-Control   Outer-Iter.   Inner-Iter.     Column Row Layer    Maximum-Head-Change  Column Row Layer    Maximum-Flux-Residual          L2-NORM 
          0                 1          12            65    2     2      -0.2949782234E+02      18   17    2        -0.3451750017E+06      0.1345187702E+07
          0                 2          11            69   63     3       0.1118850782E+01      18   17    2         0.2966378713E+05      0.1302331054E+06
          0                 3           7            17   36     2       0.6002517379E-01      17   36    2         0.7231256030E+03      0.1231360498E+04
          0                 4           5            65    2     2       0.3178668260E-02      64  111    2        -0.3375778956E+03      0.3454369545E+03

    ------------------------------------------------
       NWT REQUIRED            4 OUTER ITERATIONS 
       AND A TOTAL OF         35 INNER ITERATIONS.
    ------------------------------------------------

 NO OUTPUT CONTROL FOR STRESS PERIOD   17   TIME STEP    1

 INTERPOLATION FOR HEAD OBS# 3662, ID 1891-17-37   CHANGED BECAUSE AT LEAST ONE
 NEIGHBORING CELL REQUIRED FOR INTERPOLATION IS DRY OR INACTIVE (OBS2BAS7SE)

 INTERPOLATION FOR HEAD OBS# 3711, ID 1471-17-33   CHANGED BECAUSE AT LEAST ONE
 NEIGHBORING CELL REQUIRED FOR INTERPOLATION IS DRY OR INACTIVE (OBS2BAS7SE)

 INTERPOLATION FOR HEAD OBS# 3755, ID 1427-17-39   CHANGED BECAUSE AT LEAST ONE
 NEIGHBORING CELL REQUIRED FOR INTERPOLATION IS DRY OR INACTIVE (OBS2BAS7SE)

 INTERPOLATION FOR HEAD OBS# 3779, ID 1349-17-41   CHANGED BECAUSE AT LEAST ONE
 NEIGHBORING CELL REQUIRED FOR INTERPOLATION IS DRY OR INACTIVE (OBS2BAS7SE)

 INTERPOLATION FOR HEAD OBS# 5692, ID 1168-17-47   CHANGED BECAUSE AT LEAST ONE
 NEIGHBORING CELL REQUIRED FOR INTERPOLATION IS DRY OR INACTIVE (OBS2BAS7SE)
 
 SOLVING FOR HEAD 
                                                   Max.-Head-Change                         Max.-Flux-Residual
  Residual-Control   Outer-Iter.   Inner-Iter.     Column Row Layer    Maximum-Head-Change  Column Row Layer    Maximum-Flux-Residual          L2-NORM 
          0                 1          11            69   63     3      -0.3668019492E+01      34   59    2        -0.1321079447E+06      0.8266146818E+06
          0                 2          10            69   63     3       0.3350340291E+00      34   59    2         0.1272699709E+05      0.8202669909E+05
          0                 3           6            61   64     3       0.1051839992E-02      59   62    1        -0.6325395125E+02      0.1154985370E+03

    ------------------------------------------------
       NWT REQUIRED            3 OUTER ITERATIONS 
       AND A TOTAL OF         27 INNER ITERATIONS.
    ------------------------------------------------

 NO OUTPUT CONTROL FOR STRESS PERIOD   17   TIME STEP    2

 INTERPOLATION FOR HEAD OBS# 6998, ID 683-17-78    CHANGED BECAUSE AT LEAST ONE
 NEIGHBORING CELL REQUIRED FOR INTERPOLATION IS DRY OR INACTIVE (OBS2BAS7SE)
 
 SOLVING FOR HEAD 
                                                   Max.-Head-Change                         Max.-Flux-Residual
  Residual-Control   Outer-Iter.   Inner-Iter.     Column Row Layer    Maximum-Head-Change  Column Row Layer    Maximum-Flux-Residual          L2-NORM 
          0                 1          11            34   59     2      -0.2351309186E+01      34   59    2        -0.8543532309E+05      0.7033306071E+06
          0                 2          10            34   59     2       0.2131473064E+00      34   59    2         0.8620418426E+04      0.7005931669E+05
          0                 3           6            31   37     1       0.5713915542E-03      34   59    1         0.5494115047E+01      0.2424921774E+02

    ------------------------------------------------
       NWT REQUIRED            3 OUTER ITERATIONS 
       AND A TOTAL OF         27 INNER ITERATIONS.
    ------------------------------------------------

 NO OUTPUT CONTROL FOR STRESS PERIOD   17   TIME STEP    3
 
 SOLVING FOR HEAD 
                                                   Max.-Head-Change                         Max.-Flux-Residual
  Residual-Control   Outer-Iter.   Inner-Iter.     Column Row Layer    Maximum-Head-Change  Column Row Layer    Maximum-Flux-Residual          L2-NORM 
          0                 1          11            34   59     2      -0.1721715031E+01      34   59    2        -0.5875838041E+05      0.6481962107E+06
          0                 2          10            70   18     1      -0.1670301219E+01      70   18    1        -0.7667962122E+04      0.6517822554E+05
          0                 3           6            70   18     1       0.1426311446E+00      70   18    1         0.7207585100E+03      0.7547001934E+03
          0                 4           2            70   18     1       0.7850587942E-03      70   18    1         0.3928668920E+01      0.3948036273E+01

    ------------------------------------------------
       NWT REQUIRED            4 OUTER ITERATIONS 
       AND A TOTAL OF         29 INNER ITERATIONS.
    ------------------------------------------------

 NO OUTPUT CONTROL FOR STRESS PERIOD   17   TIME STEP    4
 
 SOLVING FOR HEAD 
                                                   Max.-Head-Change                         Max.-Flux-Residual
  Residual-Control   Outer-Iter.   Inner-Iter.     Column Row Layer    Maximum-Head-Change  Column Row Layer    Maximum-Flux-Residual          L2-NORM 
          0                 1          11            81   46     1      -0.1353172887E+01      81   46    1        -0.4723995063E+05      0.6173707784E+06
          0                 2          10            34   14     2      -0.1864871715E+00      81   46    1         0.4721158146E+04      0.6168406809E+05
          0                 3           6            34   14     2       0.1182956206E-01      23   27    2         0.5578398027E+02      0.6745570423E+02
          0                 4           3            34   14     2       0.3251631601E-03      59   72    1        -0.1215094060E+01      0.1402827384E+01

    ------------------------------------------------
       NWT REQUIRED            4 OUTER ITERATIONS 
       AND A TOTAL OF         30 INNER ITERATIONS.
    ------------------------------------------------

 NO OUTPUT CONTROL FOR STRESS PERIOD   17   TIME STEP    5
 
 SOLVING FOR HEAD 
                                                   Max.-Head-Change                         Max.-Flux-Residual
  Residual-Control   Outer-Iter.   Inner-Iter.     Column Row Layer    Maximum-Head-Change  Column Row Layer    Maximum-Flux-Residual          L2-NORM 
          0                 1          11            34   14     2      -0.3666907500E+01      81   46    1        -0.4218815234E+05      0.5973190332E+06
          0                 2          10            34   14     2       0.2325635780E+00      23   27    2         0.9099213207E+04      0.6063903450E+05
          0                 3           6            34   14     2       0.6372665087E-02      58   74    2         0.9326777948E+01      0.2596457605E+02

    ------------------------------------------------
       NWT REQUIRED            3 OUTER ITERATIONS 
       AND A TOTAL OF         27 INNER ITERATIONS.
    ------------------------------------------------

 NO OUTPUT CONTROL FOR STRESS PERIOD   17   TIME STEP    6
 
 SOLVING FOR HEAD 
                                                   Max.-Head-Change                         Max.-Flux-Residual
  Residual-Control   Outer-Iter.   Inner-Iter.     Column Row Layer    Maximum-Head-Change  Column Row Layer    Maximum-Flux-Residual          L2-NORM 
          0                 1          11            81   46     1      -0.1080569314E+01      81   46    1        -0.3769151112E+05      0.5828114246E+06
          0                 2          10            18   42     2      -0.3389752331E+00      81   46    1         0.3767371326E+04      0.5841144554E+05
          0                 3           6            18   42     2       0.3032836375E-01      18   42    2         0.3602362715E+03      0.4240794476E+03
          0                 4           3            18   42     2       0.5418087592E-04      18   42    2         0.5665806681E+00      0.6457252480E+00

    ------------------------------------------------
       NWT REQUIRED            4 OUTER ITERATIONS 
       AND A TOTAL OF         30 INNER ITERATIONS.
    ------------------------------------------------

 NO OUTPUT CONTROL FOR STRESS PERIOD   17   TIME STEP    7
 
 SOLVING FOR HEAD 
                                                   Max.-Head-Change                         Max.-Flux-Residual
  Residual-Control   Outer-Iter.   Inner-Iter.     Column Row Layer    Maximum-Head-Change  Column Row Layer    Maximum-Flux-Residual          L2-NORM 
          0                 1          11            18   42     2      -0.1005383798E+01      81   46    1        -0.3368831936E+05      0.5719914027E+06
          0                 2          10            17   35     2      -0.5814075913E+00      17   35    2        -0.6471609154E+04      0.5756885557E+05
          0                 3           6            17   35     2       0.5190087383E-01      17   35    2         0.6362427671E+03      0.6813501597E+03
          0                 4           3            17   35     2       0.8486207290E-04      17   35    2         0.9509047717E+00      0.1070447526E+01

    ------------------------------------------------
       NWT REQUIRED            4 OUTER ITERATIONS 
       AND A TOTAL OF         30 INNER ITERATIONS.
    ------------------------------------------------

 NO OUTPUT CONTROL FOR STRESS PERIOD   17   TIME STEP    8
 
 SOLVING FOR HEAD 
                                                   Max.-Head-Change                         Max.-Flux-Residual
  Residual-Control   Outer-Iter.   Inner-Iter.     Column Row Layer    Maximum-Head-Change  Column Row Layer    Maximum-Flux-Residual          L2-NORM 
          0                 1          11            81   46     1      -0.8655032132E+00      81   46    1        -0.3013906097E+05      0.5634471915E+06
          0                 2          10            25   62     2       0.1770884168E+00      20   22    2         0.1458659394E+05      0.5894706362E+05
          0                 3           7            25   62     2      -0.9304372815E-01      25   62    2        -0.4494995987E+04      0.4783413654E+04
          0                 4           4            25   62     2      -0.8385378587E-02      25   62    2        -0.4049548901E+03      0.4049930940E+03

    ------------------------------------------------
       NWT REQUIRED            4 OUTER ITERATIONS 
       AND A TOTAL OF         32 INNER ITERATIONS.
    ------------------------------------------------

 NO OUTPUT CONTROL FOR STRESS PERIOD   17   TIME STEP    9
 
 SOLVING FOR HEAD 
                                                   Max.-Head-Change                         Max.-Flux-Residual
  Residual-Control   Outer-Iter.   Inner-Iter.     Column Row Layer    Maximum-Head-Change  Column Row Layer    Maximum-Flux-Residual          L2-NORM 
          0                 1          11            81   46     1      -0.7752210551E+00      12   11    1        -0.2822761405E+05      0.5560851467E+06
          0                 2          10            21   51     2      -0.3025953349E+00      13   13    2         0.2486396499E+05      0.6620934480E+05
          0                 3           7            16   34     2      -0.5154208994E-01      16   34    2        -0.1869124574E+04      0.2232725722E+04
          0                 4           6            16   34     2      -0.4643371213E-02      16   34    2        -0.1683323478E+03      0.1685123875E+03

    ------------------------------------------------
       NWT REQUIRED            4 OUTER ITERATIONS 
       AND A TOTAL OF         34 INNER ITERATIONS.
    ------------------------------------------------

 NO OUTPUT CONTROL FOR STRESS PERIOD   17   TIME STEP   10
 
 SOLVING FOR HEAD 
                                                   Max.-Head-Change                         Max.-Flux-Residual
  Residual-Control   Outer-Iter.   Inner-Iter.     Column Row Layer    Maximum-Head-Change  Column Row Layer    Maximum-Flux-Residual          L2-NORM 
          0                 1          11            20   22     1      -0.7829916153E+00      12   11    1        -0.2766475301E+05      0.5496715825E+06
          0                 2          10            16   34     2      -0.7104038750E+00      12    5    1        -0.1224915459E+05      0.5766714998E+05
          0                 3           7            16   34     2       0.6339880904E-01      12    5    1         0.1211957751E+04      0.1895794885E+04
          0                 4           3            16   34     2       0.1062462055E-03      16   34    2         0.1308953691E+01      0.2356100197E+01

    ------------------------------------------------
       NWT REQUIRED            4 OUTER ITERATIONS 
       AND A TOTAL OF         31 INNER ITERATIONS.
    ------------------------------------------------

 NO OUTPUT CONTROL FOR STRESS PERIOD   17   TIME STEP   11
 
 SOLVING FOR HEAD 
                                                   Max.-Head-Change                         Max.-Flux-Residual
  Residual-Control   Outer-Iter.   Inner-Iter.     Column Row Layer    Maximum-Head-Change  Column Row Layer    Maximum-Flux-Residual          L2-NORM 
          0                 1          11            30   35     1      -0.1021558495E+01      12   11    1        -0.2733906718E+05      0.5456454688E+06
          0                 2          10            19   21     2       0.1850135213E+00      19   21    2         0.1732934415E+05      0.5926805265E+05
          0                 3           6            19   21     1      -0.9152366620E-02      19   21    1        -0.7074904653E+03      0.7121472979E+03

    ------------------------------------------------
       NWT REQUIRED            3 OUTER ITERATIONS 
       AND A TOTAL OF         27 INNER ITERATIONS.
    ------------------------------------------------

 OUTPUT CONTROL FOR STRESS PERIOD   17   TIME STEP   12
    SAVE BUDGET
 UBDSV1 SAVING "         STORAGE" ON UNIT  39 AT TIME STEP 12, STRESS PERIOD  17
 UBDSV2 SAVING "   CONSTANT HEAD" ON UNIT  39 AT TIME STEP 12, STRESS PERIOD  17
 UBDSV1 SAVING "FLOW RIGHT FACE " ON UNIT  39 AT TIME STEP 12, STRESS PERIOD  17
 UBDSV1 SAVING "FLOW FRONT FACE " ON UNIT  39 AT TIME STEP 12, STRESS PERIOD  17
 UBDSV1 SAVING "FLOW LOWER FACE " ON UNIT  39 AT TIME STEP 12, STRESS PERIOD  17
 UBDSV4 SAVING "           WELLS" ON UNIT  39 AT TIME STEP 12, STRESS PERIOD  17
 UBDSV3 SAVING "              ET" ON UNIT  39 AT TIME STEP 12, STRESS PERIOD  17
 UBDSV3 SAVING "        RECHARGE" ON UNIT  39 AT TIME STEP 12, STRESS PERIOD  17
1
  VOLUMETRIC BUDGET FOR ENTIRE MODEL AT END OF TIME STEP   12, STRESS PERIOD  17
  ------------------------------------------------------------------------------

     CUMULATIVE VOLUMES      L**3       RATES FOR THIS TIME STEP      L**3/T
     ------------------                 ------------------------

           IN:                                      IN:
           ---                                      ---
             STORAGE = 70662266880.0000               STORAGE =    26918026.0000
       CONSTANT HEAD =  7849807872.0000         CONSTANT HEAD =     1406536.6250
               WELLS =  7611230208.0000                 WELLS =     1225642.0000
                  ET =           0.0000                    ET =           0.0000
            RECHARGE = 82411216896.0000              RECHARGE =     9583517.0000

            TOTAL IN =168534507520.0000              TOTAL IN =    39133720.0000

          OUT:                                     OUT:
          ----                                     ----
             STORAGE =  7243010560.0000               STORAGE =      100048.4922
       CONSTANT HEAD = 22082637824.0000         CONSTANT HEAD =     3913596.5000
               WELLS =132673527808.0000                 WELLS =    34790332.0000
                  ET =  6535458304.0000                    ET =      329806.3750
            RECHARGE =           0.0000              RECHARGE =           0.0000

           TOTAL OUT =168534622208.0000             TOTAL OUT =    39133784.0000

            IN - OUT =     -114688.0000              IN - OUT =         -64.0000

 PERCENT DISCREPANCY =          -0.00     PERCENT DISCREPANCY =          -0.00






         TIME SUMMARY AT END OF TIME STEP   12 IN STRESS PERIOD   17
                    SECONDS     MINUTES      HOURS       DAYS        YEARS
                    -----------------------------------------------------------
   TIME STEP LENGTH 2.63520E+06  43920.      732.00      30.500     8.35044E-02
 STRESS PERIOD TIME 3.16224E+07 5.27040E+05  8784.0      366.00      1.0021    
         TOTAL TIME 5.36544E+08 8.94240E+06 1.49040E+05  6210.0      17.002    
1
1
                            STRESS PERIOD NO.   18, LENGTH =   365.0000    
                            -----------------------------------------------

                              NUMBER OF TIME STEPS =    12

                               MULTIPLIER FOR DELT =     1.000

                            INITIAL TIME STEP SIZE =   30.41667    

   1726 WELLS

 REUSING SURF FROM LAST STRESS PERIOD

 REUSING EVTR FROM LAST STRESS PERIOD

 REUSING EXDP FROM LAST STRESS PERIOD



                           RECHARGE
 READING ON UNIT   16 WITH FORMAT: (15F5.0)            


     63 TIME-VARIANT SPECIFIED-HEAD CELLS
 
 SOLVING FOR HEAD 
                                                   Max.-Head-Change                         Max.-Flux-Residual
  Residual-Control   Outer-Iter.   Inner-Iter.     Column Row Layer    Maximum-Head-Change  Column Row Layer    Maximum-Flux-Residual          L2-NORM 
          0                 1          12            92   77     2       0.1533145331E+02      23   15    2        -0.1696870505E+06      0.8712433185E+06
          0                 2          10            91   67     1      -0.8433578102E+00      83   51    1        -0.1806018258E+05      0.9098896840E+05
          0                 3           7            37   19     2      -0.9755043575E-01      37   19    2        -0.3493880189E+04      0.3886810678E+04
          0                 4           5            37   19     2      -0.8785141825E-02      37   19    2        -0.3145879197E+03      0.3150047270E+03

    ------------------------------------------------
       NWT REQUIRED            4 OUTER ITERATIONS 
       AND A TOTAL OF         34 INNER ITERATIONS.
    ------------------------------------------------

 NO OUTPUT CONTROL FOR STRESS PERIOD   18   TIME STEP    1
 
 SOLVING FOR HEAD 
                                                   Max.-Head-Change                         Max.-Flux-Residual
  Residual-Control   Outer-Iter.   Inner-Iter.     Column Row Layer    Maximum-Head-Change  Column Row Layer    Maximum-Flux-Residual          L2-NORM 
          0                 1          11            81   45     1       0.3108192340E+01      76   48    1         0.1191603645E+06      0.6938183941E+06
          0                 2          10            37   19     2      -0.1238598395E+01      76   48    1        -0.1197090953E+05      0.7298252989E+05
          0                 3           7            37   19     2       0.1057119667E+00      29   39    1        -0.2823079124E+04      0.2957763348E+04
          0                 4           5            29   39     1      -0.5055832180E-02      29   39    1        -0.2542277584E+03      0.2544211706E+03

    ------------------------------------------------
       NWT REQUIRED            4 OUTER ITERATIONS 
       AND A TOTAL OF         33 INNER ITERATIONS.
    ------------------------------------------------

 NO OUTPUT CONTROL FOR STRESS PERIOD   18   TIME STEP    2
 
 SOLVING FOR HEAD 
                                                   Max.-Head-Change                         Max.-Flux-Residual
  Residual-Control   Outer-Iter.   Inner-Iter.     Column Row Layer    Maximum-Head-Change  Column Row Layer    Maximum-Flux-Residual          L2-NORM 
          0                 1          11            81   45     1       0.2719119570E+01      76   48    1         0.9374349191E+05      0.6342675791E+06
          0                 2          10            29   39     1      -0.5094174569E+00      68   47    1        -0.1619455171E+05      0.6678374159E+05
          0                 3           6            29   39     1       0.4545175808E-01      12    6    1        -0.9459737203E+03      0.1315078297E+04
          0                 4           4            12    6     1      -0.1032502913E-02      12    6    1        -0.8515076187E+02      0.8516225586E+02

    ------------------------------------------------
       NWT REQUIRED            4 OUTER ITERATIONS 
       AND A TOTAL OF         31 INNER ITERATIONS.
    ------------------------------------------------

 NO OUTPUT CONTROL FOR STRESS PERIOD   18   TIME STEP    3
 
 SOLVING FOR HEAD 
                                                   Max.-Head-Change                         Max.-Flux-Residual
  Residual-Control   Outer-Iter.   Inner-Iter.     Column Row Layer    Maximum-Head-Change  Column Row Layer    Maximum-Flux-Residual          L2-NORM 
          0                 1          11            81   45     1       0.2375648735E+01      70   47    1         0.7951508032E+05      0.5994596547E+06
          0                 2          10            19   42     2      -0.1015129469E+01      12    6    1        -0.1144595255E+05      0.6217701555E+05
          0                 3           6            19   42     2       0.8924097730E-01      12    6    1         0.1132430328E+04      0.1496127147E+04
          0                 4           4            19   42     2       0.2772139759E-03      19   42    2         0.1673534356E+01      0.2347885005E+01

    ------------------------------------------------
       NWT REQUIRED            4 OUTER ITERATIONS 
       AND A TOTAL OF         31 INNER ITERATIONS.
    ------------------------------------------------

 NO OUTPUT CONTROL FOR STRESS PERIOD   18   TIME STEP    4
 
 SOLVING FOR HEAD 
                                                   Max.-Head-Change                         Max.-Flux-Residual
  Residual-Control   Outer-Iter.   Inner-Iter.     Column Row Layer    Maximum-Head-Change  Column Row Layer    Maximum-Flux-Residual          L2-NORM 
          0                 1          11            81   45     1       0.2077845106E+01      70   47    1         0.6827889422E+05      0.5762636467E+06
          0                 2          10            33   35     2      -0.1005490306E+01      70   47    1        -0.6869515777E+04      0.5779121987E+05
          0                 3           6            33   35     2       0.7313441916E-01      19   46    2         0.3292416763E+03      0.4092058426E+03
          0                 4           3            33   35     2       0.1329792854E-02      33   35    2         0.1389063891E+01      0.1660428554E+01

    ------------------------------------------------
       NWT REQUIRED            4 OUTER ITERATIONS 
       AND A TOTAL OF         30 INNER ITERATIONS.
    ------------------------------------------------

 NO OUTPUT CONTROL FOR STRESS PERIOD   18   TIME STEP    5
 
 SOLVING FOR HEAD 
                                                   Max.-Head-Change                         Max.-Flux-Residual
  Residual-Control   Outer-Iter.   Inner-Iter.     Column Row Layer    Maximum-Head-Change  Column Row Layer    Maximum-Flux-Residual          L2-NORM 
          0                 1          11            33   35     2      -0.3518241901E+01      69   47    1         0.5884364337E+05      0.5597007177E+06
          0                 2          10            64  111     1      -0.3815889102E+00      35   61    2         0.7737413587E+04      0.5675581587E+05
          0                 3           6            64  111     1       0.3063459650E-01      64  111    1         0.8779505968E+02      0.1077238110E+03
          0                 4           2            64  111     1       0.3257502717E-03      64  111    1         0.9177131206E+00      0.9299079938E+00

    ------------------------------------------------
       NWT REQUIRED            4 OUTER ITERATIONS 
       AND A TOTAL OF         29 INNER ITERATIONS.
    ------------------------------------------------

 NO OUTPUT CONTROL FOR STRESS PERIOD   18   TIME STEP    6
 
 SOLVING FOR HEAD 
                                                   Max.-Head-Change                         Max.-Flux-Residual
  Residual-Control   Outer-Iter.   Inner-Iter.     Column Row Layer    Maximum-Head-Change  Column Row Layer    Maximum-Flux-Residual          L2-NORM 
          0                 1          11            81   46     1       0.1677988540E+01      81   46    1         0.5397563761E+05      0.5472781679E+06
          0                 2          10            32   19     2       0.1659958210E+00      32   19    2         0.8770052827E+04      0.5568216588E+05
          0                 3           7            17   41     3       0.1060582389E-01      17   41    3         0.4296601162E+03      0.4331193805E+03
          0                 4           2            71   46     1      -0.6328972634E-04      71   46    1        -0.2671139445E+00      0.3900806214E+00

    ------------------------------------------------
       NWT REQUIRED            4 OUTER ITERATIONS 
       AND A TOTAL OF         30 INNER ITERATIONS.
    ------------------------------------------------

 NO OUTPUT CONTROL FOR STRESS PERIOD   18   TIME STEP    7
 
 SOLVING FOR HEAD 
                                                   Max.-Head-Change                         Max.-Flux-Residual
  Residual-Control   Outer-Iter.   Inner-Iter.     Column Row Layer    Maximum-Head-Change  Column Row Layer    Maximum-Flux-Residual          L2-NORM 
          0                 1          11            81   46     1       0.1629406397E+01      81   46    1         0.5245518788E+05      0.5376615325E+06
          0                 2          10            17   34     2      -0.5287783478E+00      17   41    3         0.1230233389E+05      0.5635702549E+05
          0                 3           7            17   34     2       0.1500913703E+00      17   34    2         0.1721721453E+04      0.2356901198E+04
          0                 4           5            18   34     2      -0.1889622625E-02      18   34    2        -0.7844762449E+02      0.8036105749E+02

    ------------------------------------------------
       NWT REQUIRED            4 OUTER ITERATIONS 
       AND A TOTAL OF         33 INNER ITERATIONS.
    ------------------------------------------------

 NO OUTPUT CONTROL FOR STRESS PERIOD   18   TIME STEP    8
 
 SOLVING FOR HEAD 
                                                   Max.-Head-Change                         Max.-Flux-Residual
  Residual-Control   Outer-Iter.   Inner-Iter.     Column Row Layer    Maximum-Head-Change  Column Row Layer    Maximum-Flux-Residual          L2-NORM 
          0                 1          11            81   46     1       0.1581104495E+01      81   46    1         0.5093694434E+05      0.5299269072E+06
          0                 2          10            23   31     1      -0.3951308735E+00      19   20    2         0.1146867784E+05      0.5634437878E+05
          0                 3           8            21   49     2      -0.1055301406E+00      19   20    1        -0.5871321691E+04      0.7785444295E+04
          0                 4           7            21   49     2      -0.8970630664E-02      19   20    1        -0.5290457007E+03      0.7067757272E+03

    ------------------------------------------------
       NWT REQUIRED            4 OUTER ITERATIONS 
       AND A TOTAL OF         36 INNER ITERATIONS.
    ------------------------------------------------

 NO OUTPUT CONTROL FOR STRESS PERIOD   18   TIME STEP    9
 
 SOLVING FOR HEAD 
                                                   Max.-Head-Change                         Max.-Flux-Residual
  Residual-Control   Outer-Iter.   Inner-Iter.     Column Row Layer    Maximum-Head-Change  Column Row Layer    Maximum-Flux-Residual          L2-NORM 
          0                 1          11            81   46     1       0.1533259881E+01      81   46    1         0.4942745896E+05      0.5234003429E+06
          0                 2          10            13    7     1      -0.3163236661E+00      13    7    1        -0.1461885284E+05      0.5765422677E+05
          0                 3           7            59   96     1      -0.7766792461E-01      59   96    1        -0.4132587278E+04      0.4691161984E+04
          0                 4           5            59   96     1      -0.6999807553E-02      59   96    1        -0.3723038295E+03      0.3788355726E+03

    ------------------------------------------------
       NWT REQUIRED            4 OUTER ITERATIONS 
       AND A TOTAL OF         33 INNER ITERATIONS.
    ------------------------------------------------

 NO OUTPUT CONTROL FOR STRESS PERIOD   18   TIME STEP   10
 
 SOLVING FOR HEAD 
                                                   Max.-Head-Change                         Max.-Flux-Residual
  Residual-Control   Outer-Iter.   Inner-Iter.     Column Row Layer    Maximum-Head-Change  Column Row Layer    Maximum-Flux-Residual          L2-NORM 
          0                 1          11            81   46     1       0.1486984965E+01      81   46    1         0.4793706227E+05      0.5184447712E+06
          0                 2          10            18   45     2      -0.4369802009E+00      18   45    2        -0.8263944385E+04      0.5330774122E+05
          0                 3           6            18   45     2       0.3547002514E-01      18   45    2         0.8162916454E+03      0.1247720205E+04
          0                 4           4            19   45     3      -0.6056051646E-04      19   45    3        -0.2753041744E+01      0.4736197293E+01

    ------------------------------------------------
       NWT REQUIRED            4 OUTER ITERATIONS 
       AND A TOTAL OF         31 INNER ITERATIONS.
    ------------------------------------------------

 NO OUTPUT CONTROL FOR STRESS PERIOD   18   TIME STEP   11
 
 SOLVING FOR HEAD 
                                                   Max.-Head-Change                         Max.-Flux-Residual
  Residual-Control   Outer-Iter.   Inner-Iter.     Column Row Layer    Maximum-Head-Change  Column Row Layer    Maximum-Flux-Residual          L2-NORM 
          0                 1          11            81   46     1       0.1439776280E+01      81   46    1         0.4645602468E+05      0.5146631559E+06
          0                 2          10            18   41     3       0.1432570183E+00      18   41    3         0.5476846757E+04      0.5195674552E+05
          0                 3           6            33   35     2       0.6418617321E-03      28   36    1         0.2445636168E+01      0.2400704278E+02

    ------------------------------------------------
       NWT REQUIRED            3 OUTER ITERATIONS 
       AND A TOTAL OF         27 INNER ITERATIONS.
    ------------------------------------------------

 OUTPUT CONTROL FOR STRESS PERIOD   18   TIME STEP   12
    SAVE BUDGET
 UBDSV1 SAVING "         STORAGE" ON UNIT  39 AT TIME STEP 12, STRESS PERIOD  18
 UBDSV2 SAVING "   CONSTANT HEAD" ON UNIT  39 AT TIME STEP 12, STRESS PERIOD  18
 UBDSV1 SAVING "FLOW RIGHT FACE " ON UNIT  39 AT TIME STEP 12, STRESS PERIOD  18
 UBDSV1 SAVING "FLOW FRONT FACE " ON UNIT  39 AT TIME STEP 12, STRESS PERIOD  18
 UBDSV1 SAVING "FLOW LOWER FACE " ON UNIT  39 AT TIME STEP 12, STRESS PERIOD  18
 UBDSV4 SAVING "           WELLS" ON UNIT  39 AT TIME STEP 12, STRESS PERIOD  18
 UBDSV3 SAVING "              ET" ON UNIT  39 AT TIME STEP 12, STRESS PERIOD  18
 UBDSV3 SAVING "        RECHARGE" ON UNIT  39 AT TIME STEP 12, STRESS PERIOD  18
1
  VOLUMETRIC BUDGET FOR ENTIRE MODEL AT END OF TIME STEP   12, STRESS PERIOD  18
  ------------------------------------------------------------------------------

     CUMULATIVE VOLUMES      L**3       RATES FOR THIS TIME STEP      L**3/T
     ------------------                 ------------------------

           IN:                                      IN:
           ---                                      ---
             STORAGE = 79900065792.0000               STORAGE =    24973392.0000
       CONSTANT HEAD =  8376401408.0000         CONSTANT HEAD =     1452913.8750
               WELLS =  8058587136.0000                 WELLS =     1225642.0000
                  ET =           0.0000                    ET =           0.0000
            RECHARGE = 87877017600.0000              RECHARGE =    14974722.0000

            TOTAL IN =184212062208.0000              TOTAL IN =    42626672.0000

          OUT:                                     OUT:
          ----                                     ----
             STORAGE =  7987648000.0000               STORAGE =     1452138.5000
       CONSTANT HEAD = 23501500416.0000         CONSTANT HEAD =     3859573.0000
               WELLS =145853579264.0000                 WELLS =    36109832.0000
                  ET =  6869405696.0000                    ET =     1205128.1250
            RECHARGE =           0.0000              RECHARGE =           0.0000

           TOTAL OUT =184212127744.0000             TOTAL OUT =    42626672.0000

            IN - OUT =      -65536.0000              IN - OUT =           0.0000

 PERCENT DISCREPANCY =          -0.00     PERCENT DISCREPANCY =           0.00






         TIME SUMMARY AT END OF TIME STEP   12 IN STRESS PERIOD   18
                    SECONDS     MINUTES      HOURS       DAYS        YEARS
                    -----------------------------------------------------------
   TIME STEP LENGTH 2.62800E+06  43800.      730.00      30.417     8.32763E-02
 STRESS PERIOD TIME 3.15360E+07 5.25600E+05  8760.0      365.00     0.99932    
         TOTAL TIME 5.68080E+08 9.46799E+06 1.57800E+05  6575.0      18.001    
1
1
                            STRESS PERIOD NO.   19, LENGTH =   365.0000    
                            -----------------------------------------------

                              NUMBER OF TIME STEPS =    12

                               MULTIPLIER FOR DELT =     1.000

                            INITIAL TIME STEP SIZE =   30.41667    

   1708 WELLS

 REUSING SURF FROM LAST STRESS PERIOD

 REUSING EVTR FROM LAST STRESS PERIOD

 REUSING EXDP FROM LAST STRESS PERIOD



                           RECHARGE
 READING ON UNIT   16 WITH FORMAT: (15F5.0)            


     63 TIME-VARIANT SPECIFIED-HEAD CELLS
 
 SOLVING FOR HEAD 
                                                   Max.-Head-Change                         Max.-Flux-Residual
  Residual-Control   Outer-Iter.   Inner-Iter.     Column Row Layer    Maximum-Head-Change  Column Row Layer    Maximum-Flux-Residual          L2-NORM 
          0                 1          12            72   48     3       0.2511881790E+02      62   95    1        -0.2565599564E+06      0.1018803000E+07
          0                 2          10            72   48     3      -0.2233226563E+01      41   29    1        -0.4737316223E+05      0.1105633923E+06
          0                 3           7            29   36     1      -0.6291017981E-01      29   36    1        -0.3490284332E+04      0.3553325821E+04
          0                 4           6            29   36     1      -0.5671481225E-02      29   36    1        -0.3145034587E+03      0.3147390402E+03

    ------------------------------------------------
       NWT REQUIRED            4 OUTER ITERATIONS 
       AND A TOTAL OF         35 INNER ITERATIONS.
    ------------------------------------------------

 NO OUTPUT CONTROL FOR STRESS PERIOD   19   TIME STEP    1
 
 SOLVING FOR HEAD 
                                                   Max.-Head-Change                         Max.-Flux-Residual
  Residual-Control   Outer-Iter.   Inner-Iter.     Column Row Layer    Maximum-Head-Change  Column Row Layer    Maximum-Flux-Residual          L2-NORM 
          0                 1          11            72   48     3       0.8395358787E+01      59  105    1        -0.1471464952E+06      0.6512462440E+06
          0                 2          10            72   48     3      -0.7631364511E+00      59  105    1         0.1548216088E+05      0.6771163860E+05
          0                 3           6            29   36     1       0.4219444115E-01      29   36    1         0.1080994180E+04      0.1220053538E+04
          0                 4           3            83   58     1       0.2493369038E-03      29   36    1         0.1194080293E+01      0.2462467808E+01

    ------------------------------------------------
       NWT REQUIRED            4 OUTER ITERATIONS 
       AND A TOTAL OF         30 INNER ITERATIONS.
    ------------------------------------------------

 NO OUTPUT CONTROL FOR STRESS PERIOD   19   TIME STEP    2
 
 SOLVING FOR HEAD 
                                                   Max.-Head-Change                         Max.-Flux-Residual
  Residual-Control   Outer-Iter.   Inner-Iter.     Column Row Layer    Maximum-Head-Change  Column Row Layer    Maximum-Flux-Residual          L2-NORM 
          0                 1          11            72   48     3       0.3653952869E+01      62   95    1        -0.8241270295E+05      0.5493129060E+06
          0                 2          10            72   48     3      -0.3321607239E+00      13    6    2         0.9113405517E+04      0.5726599749E+05
          0                 3           6            29   35     1      -0.5173981245E-01      29   35    1        -0.2313639975E+04      0.2446282698E+04
          0                 4           5            29   35     1      -0.4661798371E-02      29   35    1        -0.2084039727E+03      0.2084271451E+03

    ------------------------------------------------
       NWT REQUIRED            4 OUTER ITERATIONS 
       AND A TOTAL OF         32 INNER ITERATIONS.
    ------------------------------------------------

 NO OUTPUT CONTROL FOR STRESS PERIOD   19   TIME STEP    3
 
 SOLVING FOR HEAD 
                                                   Max.-Head-Change                         Max.-Flux-Residual
  Residual-Control   Outer-Iter.   Inner-Iter.     Column Row Layer    Maximum-Head-Change  Column Row Layer    Maximum-Flux-Residual          L2-NORM 
          0                 1          11            72   47     3       0.2040864662E+01      62   95    1        -0.5653944395E+05      0.5118584227E+06
          0                 2          10            29   35     1      -0.1082213067E+01      29   35    1        -0.1343207371E+05      0.5543538819E+05
          0                 3           8            36   17     3      -0.1609494527E+00      36   17    3        -0.4571774923E+04      0.4960464332E+04
          0                 4           6            36   17     3       0.1462421088E-01      36   17    3         0.5711790272E+03      0.6339677052E+03
          0                 5           5            35   17     3      -0.2956630696E-03      36   18    3        -0.6531060666E+01      0.1267050688E+02

    ------------------------------------------------
       NWT REQUIRED            5 OUTER ITERATIONS 
       AND A TOTAL OF         40 INNER ITERATIONS.
    ------------------------------------------------

 NO OUTPUT CONTROL FOR STRESS PERIOD   19   TIME STEP    4
 
 SOLVING FOR HEAD 
                                                   Max.-Head-Change                         Max.-Flux-Residual
  Residual-Control   Outer-Iter.   Inner-Iter.     Column Row Layer    Maximum-Head-Change  Column Row Layer    Maximum-Flux-Residual          L2-NORM 
          0                 1          11            72   47     3       0.1414468631E+01      62   95    1        -0.4410073914E+05      0.4938450651E+06
          0                 2          10            77   46     2       0.3831974197E+00      12    4    2         0.7930367375E+04      0.5002790071E+05
          0                 3           6            77   46     2      -0.3483533233E-01      41   29    2         0.6209071223E+03      0.6802344836E+03
          0                 4           4            41   29     2       0.4556287451E-03      41   29    2         0.5587995264E+02      0.5592957666E+02

    ------------------------------------------------
       NWT REQUIRED            4 OUTER ITERATIONS 
       AND A TOTAL OF         31 INNER ITERATIONS.
    ------------------------------------------------

 NO OUTPUT CONTROL FOR STRESS PERIOD   19   TIME STEP    5
 
 SOLVING FOR HEAD 
                                                   Max.-Head-Change                         Max.-Flux-Residual
  Residual-Control   Outer-Iter.   Inner-Iter.     Column Row Layer    Maximum-Head-Change  Column Row Layer    Maximum-Flux-Residual          L2-NORM 
          0                 1          11            77   46     2       0.1308440189E+01      62   95    1        -0.3724519912E+05      0.4835463173E+06
          0                 2          10            32   34     1      -0.7343748780E+00      41   29    2         0.1042820907E+05      0.5076020563E+05
          0                 3           7            32   34     1       0.6320277233E-01      41   29    2        -0.1042820914E+04      0.1645833614E+04
          0                 4           4            32   34     1       0.3073247272E-03      32   34    1         0.1742630253E+01      0.2304924399E+01

    ------------------------------------------------
       NWT REQUIRED            4 OUTER ITERATIONS 
       AND A TOTAL OF         32 INNER ITERATIONS.
    ------------------------------------------------

 NO OUTPUT CONTROL FOR STRESS PERIOD   19   TIME STEP    6
 
 SOLVING FOR HEAD 
                                                   Max.-Head-Change                         Max.-Flux-Residual
  Residual-Control   Outer-Iter.   Inner-Iter.     Column Row Layer    Maximum-Head-Change  Column Row Layer    Maximum-Flux-Residual          L2-NORM 
          0                 1          11            32   34     1      -0.2378092608E+01      62   95    1        -0.3300075940E+05      0.4765532470E+06
          0                 2          10            59   93     1      -0.4110665003E+00      12    3    2         0.8182707516E+04      0.4964295445E+05
          0                 3           8            17   40     2      -0.5748611175E-01      17   40    2        -0.2105861519E+04      0.2171557673E+04
          0                 4           6            17   40     2      -0.5186596000E-02      17   40    2        -0.1899009353E+03      0.1899988540E+03

    ------------------------------------------------
       NWT REQUIRED            4 OUTER ITERATIONS 
       AND A TOTAL OF         35 INNER ITERATIONS.
    ------------------------------------------------

 NO OUTPUT CONTROL FOR STRESS PERIOD   19   TIME STEP    7
 
 SOLVING FOR HEAD 
                                                   Max.-Head-Change                         Max.-Flux-Residual
  Residual-Control   Outer-Iter.   Inner-Iter.     Column Row Layer    Maximum-Head-Change  Column Row Layer    Maximum-Flux-Residual          L2-NORM 
          0                 1          11            59   93     2      -0.1655910337E+01      62   95    1        -0.3013029942E+05      0.4712970649E+06
          0                 2          10            17   40     2      -0.6044495871E+00      17   40    2        -0.8876195960E+04      0.4851793167E+05
          0                 3           7            17   40     2       0.5890325964E-01      17   40    2         0.9653118486E+03      0.1075434483E+04
          0                 4           3            18   40     2      -0.2136721049E-03      18   40    2        -0.6466746870E+01      0.6705247759E+01

    ------------------------------------------------
       NWT REQUIRED            4 OUTER ITERATIONS 
       AND A TOTAL OF         31 INNER ITERATIONS.
    ------------------------------------------------

 NO OUTPUT CONTROL FOR STRESS PERIOD   19   TIME STEP    8
 
 SOLVING FOR HEAD 
                                                   Max.-Head-Change                         Max.-Flux-Residual
  Residual-Control   Outer-Iter.   Inner-Iter.     Column Row Layer    Maximum-Head-Change  Column Row Layer    Maximum-Flux-Residual          L2-NORM 
          0                 1          11            25   47     2      -0.8332880454E+00      62   95    1        -0.2804761790E+05      0.4675285376E+06
          0                 2          10            58   85     2      -0.4756335849E+00      19   43    3         0.5972287798E+04      0.4765795950E+05
          0                 3           6            58   85     2       0.3912783380E-01      60   94    1        -0.1247726858E+04      0.1380456344E+04
          0                 4           3            60   94     1      -0.1879849532E-02      60   94    1        -0.1123190239E+03      0.1123422973E+03

    ------------------------------------------------
       NWT REQUIRED            4 OUTER ITERATIONS 
       AND A TOTAL OF         30 INNER ITERATIONS.
    ------------------------------------------------

 NO OUTPUT CONTROL FOR STRESS PERIOD   19   TIME STEP    9
 
 SOLVING FOR HEAD 
                                                   Max.-Head-Change                         Max.-Flux-Residual
  Residual-Control   Outer-Iter.   Inner-Iter.     Column Row Layer    Maximum-Head-Change  Column Row Layer    Maximum-Flux-Residual          L2-NORM 
          0                 1          11            25   47     2      -0.8051626355E+00      12    7    2        -0.2662009620E+05      0.4644287770E+06
          0                 2          10            60   94     1      -0.5649632522E+00      60   94    1        -0.1199318027E+05      0.4884819855E+05
          0                 3           6            60   94     1       0.5048136107E-01      60   94    1         0.1179681254E+04      0.1474372567E+04
          0                 4           2            60   94     1       0.7517494250E-04      60   94    1         0.1647971258E+01      0.2183091595E+01

    ------------------------------------------------
       NWT REQUIRED            4 OUTER ITERATIONS 
       AND A TOTAL OF         29 INNER ITERATIONS.
    ------------------------------------------------

 NO OUTPUT CONTROL FOR STRESS PERIOD   19   TIME STEP   10
 
 SOLVING FOR HEAD 
                                                   Max.-Head-Change                         Max.-Flux-Residual
  Residual-Control   Outer-Iter.   Inner-Iter.     Column Row Layer    Maximum-Head-Change  Column Row Layer    Maximum-Flux-Residual          L2-NORM 
          0                 1          11            25   47     2      -0.7822797651E+00      12    7    2        -0.2659589896E+05      0.4622287226E+06
          0                 2          10            68  102     1      -0.4963352864E+00      19   47    3         0.1011373905E+05      0.4743060958E+05
          0                 3           6            68  102     1       0.3899653559E-01      19   43    2         0.2480854894E+03      0.3780548605E+03
          0                 4           3            68  102     1       0.4818950036E-03      68  102    1         0.1175004474E+01      0.1402800080E+01

    ------------------------------------------------
       NWT REQUIRED            4 OUTER ITERATIONS 
       AND A TOTAL OF         30 INNER ITERATIONS.
    ------------------------------------------------

 NO OUTPUT CONTROL FOR STRESS PERIOD   19   TIME STEP   11
 
 SOLVING FOR HEAD 
                                                   Max.-Head-Change                         Max.-Flux-Residual
  Residual-Control   Outer-Iter.   Inner-Iter.     Column Row Layer    Maximum-Head-Change  Column Row Layer    Maximum-Flux-Residual          L2-NORM 
          0                 1          11            37   32     1      -0.1529069288E+01      12    7    2        -0.2658545476E+05      0.4601295556E+06
          0                 2          10            17   33     2      -0.7142414269E+00      24   29    2         0.7186817104E+04      0.4749737167E+05
          0                 3           7            17   33     2       0.1173536264E+00      17   33    2         0.1213554771E+04      0.1377878410E+04
          0                 4           4            18   33     2      -0.1241564866E-02      18   33    2        -0.4481752772E+02      0.4592107007E+02

    ------------------------------------------------
       NWT REQUIRED            4 OUTER ITERATIONS 
       AND A TOTAL OF         32 INNER ITERATIONS.
    ------------------------------------------------

 OUTPUT CONTROL FOR STRESS PERIOD   19   TIME STEP   12
    SAVE BUDGET
 UBDSV1 SAVING "         STORAGE" ON UNIT  39 AT TIME STEP 12, STRESS PERIOD  19
 UBDSV2 SAVING "   CONSTANT HEAD" ON UNIT  39 AT TIME STEP 12, STRESS PERIOD  19
 UBDSV1 SAVING "FLOW RIGHT FACE " ON UNIT  39 AT TIME STEP 12, STRESS PERIOD  19
 UBDSV1 SAVING "FLOW FRONT FACE " ON UNIT  39 AT TIME STEP 12, STRESS PERIOD  19
 UBDSV1 SAVING "FLOW LOWER FACE " ON UNIT  39 AT TIME STEP 12, STRESS PERIOD  19
 UBDSV4 SAVING "           WELLS" ON UNIT  39 AT TIME STEP 12, STRESS PERIOD  19
 UBDSV3 SAVING "              ET" ON UNIT  39 AT TIME STEP 12, STRESS PERIOD  19
 UBDSV3 SAVING "        RECHARGE" ON UNIT  39 AT TIME STEP 12, STRESS PERIOD  19
1
  VOLUMETRIC BUDGET FOR ENTIRE MODEL AT END OF TIME STEP   12, STRESS PERIOD  19
  ------------------------------------------------------------------------------

     CUMULATIVE VOLUMES      L**3       RATES FOR THIS TIME STEP      L**3/T
     ------------------                 ------------------------

           IN:                                      IN:
           ---                                      ---
             STORAGE = 88263770112.0000               STORAGE =    22333286.0000
       CONSTANT HEAD =  8873683968.0000         CONSTANT HEAD =     1346472.6250
               WELLS =  8505944064.0000                 WELLS =     1225642.0000
                  ET =           0.0000                    ET =           0.0000
            RECHARGE = 94403420160.0000              RECHARGE =    17880542.0000

            TOTAL IN =200046804992.0000              TOTAL IN =    42785944.0000

          OUT:                                     OUT:
          ----                                     ----
             STORAGE =  8589182464.0000               STORAGE =     1063907.0000
       CONSTANT HEAD = 24913369088.0000         CONSTANT HEAD =     3862384.5000
               WELLS =159264014336.0000                 WELLS =    36740668.0000
                  ET =  7280413696.0000                    ET =     1118994.6250
            RECHARGE =           0.0000              RECHARGE =           0.0000

           TOTAL OUT =200046968832.0000             TOTAL OUT =    42785956.0000

            IN - OUT =     -163840.0000              IN - OUT =         -12.0000

 PERCENT DISCREPANCY =          -0.00     PERCENT DISCREPANCY =          -0.00






         TIME SUMMARY AT END OF TIME STEP   12 IN STRESS PERIOD   19
                    SECONDS     MINUTES      HOURS       DAYS        YEARS
                    -----------------------------------------------------------
   TIME STEP LENGTH 2.62800E+06  43800.      730.00      30.417     8.32763E-02
 STRESS PERIOD TIME 3.15360E+07 5.25600E+05  8760.0      365.00     0.99932    
         TOTAL TIME 5.99615E+08 9.99359E+06 1.66560E+05  6940.0      19.001    
1
1
                            STRESS PERIOD NO.   20, LENGTH =   365.0000    
                            -----------------------------------------------

                              NUMBER OF TIME STEPS =    12

                               MULTIPLIER FOR DELT =     1.000

                            INITIAL TIME STEP SIZE =   30.41667    

   1750 WELLS

 REUSING SURF FROM LAST STRESS PERIOD

 REUSING EVTR FROM LAST STRESS PERIOD

 REUSING EXDP FROM LAST STRESS PERIOD



                           RECHARGE
 READING ON UNIT   16 WITH FORMAT: (15F5.0)            


     63 TIME-VARIANT SPECIFIED-HEAD CELLS
 
 SOLVING FOR HEAD 
                                                   Max.-Head-Change                         Max.-Flux-Residual
  Residual-Control   Outer-Iter.   Inner-Iter.     Column Row Layer    Maximum-Head-Change  Column Row Layer    Maximum-Flux-Residual          L2-NORM 
          0                 1          11            65    2     2       0.1540219108E+03      70   19    1         0.2463187207E+06      0.1063113803E+07
          0                 2          10            65    7     2      -0.7810146710E+02      65    7    2        -0.2237245950E+07      0.3504726522E+07
          0                 3           6            66    7     2       0.3335738884E+02      65    7    2        -0.8309927196E+05      0.1163614920E+06
          0                 4           4            65    3     2      -0.1498955491E+02      65    3    2        -0.4779692162E+06      0.6719344448E+06
          0                 5           4            65    3     2      -0.2676881359E+01      65    3    2        -0.8428654710E+05      0.1187176898E+06
          0                 6           3            66    3     2       0.4732534805E+00      65    3    2        -0.1450839035E+05      0.2042664314E+05
          0                 7           3            66    3     2       0.1415675973E+00      65    3    2        -0.2481720734E+04      0.3495702717E+04
          0                 8           2            66    3     2       0.4138926460E-01      65    3    2        -0.4237776837E+03      0.5978487764E+03
          0                 9           2            66    3     2       0.1205957298E-01      65    3    2        -0.7230700347E+02      0.1024174878E+03
          0                10           2            66    3     2       0.3511078866E-02      65    3    2        -0.1233017060E+02      0.1764584717E+02

    ------------------------------------------------
       NWT REQUIRED           10 OUTER ITERATIONS 
       AND A TOTAL OF         47 INNER ITERATIONS.
    ------------------------------------------------

 NO OUTPUT CONTROL FOR STRESS PERIOD   20   TIME STEP    1
 
 SOLVING FOR HEAD 
                                                   Max.-Head-Change                         Max.-Flux-Residual
  Residual-Control   Outer-Iter.   Inner-Iter.     Column Row Layer    Maximum-Head-Change  Column Row Layer    Maximum-Flux-Residual          L2-NORM 
          0                 1          11            70   19     2       0.7418223290E+01      70   19    2         0.2206215318E+06      0.8514693630E+06
          0                 2          10            72   15     1      -0.8752708785E+00      72   15    1        -0.2555530938E+05      0.9010056723E+05
          0                 3           6            34   60     1       0.3644087216E-01      34   60    1         0.6204052159E+03      0.6426110372E+03
          0                 4           3            65    1     2      -0.1757123214E-03      61   79    1        -0.1303704143E+01      0.1792775139E+01

    ------------------------------------------------
       NWT REQUIRED            4 OUTER ITERATIONS 
       AND A TOTAL OF         30 INNER ITERATIONS.
    ------------------------------------------------

 NO OUTPUT CONTROL FOR STRESS PERIOD   20   TIME STEP    2
 
 SOLVING FOR HEAD 
                                                   Max.-Head-Change                         Max.-Flux-Residual
  Residual-Control   Outer-Iter.   Inner-Iter.     Column Row Layer    Maximum-Head-Change  Column Row Layer    Maximum-Flux-Residual          L2-NORM 
          0                 1          11            70   19     2       0.6772100726E+01      70   19    2         0.2010380708E+06      0.7852348110E+06
          0                 2          10            36   17     2      -0.1593036681E+01      69   20    1        -0.5172162532E+05      0.9593817379E+05
          0                 3           7            36   17     2       0.1260350225E+00      34   22    1         0.6056325149E+03      0.1017226046E+04
          0                 4           5            36   17     2       0.1546037132E-02      14   16    1        -0.2730205444E+02      0.2896217576E+02

    ------------------------------------------------
       NWT REQUIRED            4 OUTER ITERATIONS 
       AND A TOTAL OF         33 INNER ITERATIONS.
    ------------------------------------------------

 NO OUTPUT CONTROL FOR STRESS PERIOD   20   TIME STEP    3
 
 SOLVING FOR HEAD 
                                                   Max.-Head-Change                         Max.-Flux-Residual
  Residual-Control   Outer-Iter.   Inner-Iter.     Column Row Layer    Maximum-Head-Change  Column Row Layer    Maximum-Flux-Residual          L2-NORM 
          0                 1          11            70   19     2       0.6101107254E+01      70   19    2         0.1840247129E+06      0.7391928996E+06
          0                 2          10            70   19     1      -0.2606748535E+01      70   19    1        -0.9498682638E+05      0.1219824201E+06
          0                 3           7            70   18     2       0.7021120880E+00      70   18    2         0.2761516970E+05      0.2775532964E+05
          0                 4           6            70   18     2       0.6313556821E-01      70   18    2         0.2483247175E+04      0.2492068953E+04
          0                 5           4            70   18     2       0.5676120382E-02      70   18    2         0.2232269056E+03      0.2240200851E+03

    ------------------------------------------------
       NWT REQUIRED            5 OUTER ITERATIONS 
       AND A TOTAL OF         38 INNER ITERATIONS.
    ------------------------------------------------

 NO OUTPUT CONTROL FOR STRESS PERIOD   20   TIME STEP    4
 
 SOLVING FOR HEAD 
                                                   Max.-Head-Change                         Max.-Flux-Residual
  Residual-Control   Outer-Iter.   Inner-Iter.     Column Row Layer    Maximum-Head-Change  Column Row Layer    Maximum-Flux-Residual          L2-NORM 
          0                 1          11            73   14     2       0.5373631874E+01      70   19    2         0.1516467039E+06      0.7049810127E+06
          0                 2          10            70   18     2       0.8376472976E+01      70   18    2         0.6500938487E+05      0.9734243217E+05
          0                 3           6            70   18     2      -0.8231471783E+00      70   18    2        -0.7244956900E+04      0.7606577829E+04
          0                 4           3            70   19     2       0.8793509634E-03      70   19    2         0.4140789266E+02      0.5476397854E+02

    ------------------------------------------------
       NWT REQUIRED            4 OUTER ITERATIONS 
       AND A TOTAL OF         30 INNER ITERATIONS.
    ------------------------------------------------

 NO OUTPUT CONTROL FOR STRESS PERIOD   20   TIME STEP    5
 
 SOLVING FOR HEAD 
                                                   Max.-Head-Change                         Max.-Flux-Residual
  Residual-Control   Outer-Iter.   Inner-Iter.     Column Row Layer    Maximum-Head-Change  Column Row Layer    Maximum-Flux-Residual          L2-NORM 
          0                 1          11            73   14     2       0.5119819561E+01      73   14    2         0.1233379667E+06      0.6831384853E+06
          0                 2          10            73   15     2      -0.2860533713E+01      73   15    2        -0.8281941508E+05      0.1085324730E+06
          0                 3           7            16   29     2      -0.4376761431E-01      16   29    2        -0.2297288764E+04      0.2329808703E+04
          0                 4           5            16   29     2      -0.3942119548E-02      16   29    2        -0.2068577583E+03      0.2068988492E+03

    ------------------------------------------------
       NWT REQUIRED            4 OUTER ITERATIONS 
       AND A TOTAL OF         33 INNER ITERATIONS.
    ------------------------------------------------

 NO OUTPUT CONTROL FOR STRESS PERIOD   20   TIME STEP    6
 
 SOLVING FOR HEAD 
                                                   Max.-Head-Change                         Max.-Flux-Residual
  Residual-Control   Outer-Iter.   Inner-Iter.     Column Row Layer    Maximum-Head-Change  Column Row Layer    Maximum-Flux-Residual          L2-NORM 
          0                 1          11            73   14     2       0.4846468338E+01      73   14    2         0.1172445439E+06      0.6637755519E+06
          0                 2          10            69   20     2       0.2153253593E+01      69   21    1        -0.6056940565E+05      0.9457710891E+05
          0                 3           7            71   16     2       0.6919194691E+00      71   16    2         0.2660804887E+05      0.2730509986E+05
          0                 4           4            71   16     2       0.6217267748E-01      71   16    2         0.2391199707E+04      0.2441468299E+04
          0                 5           3            71   16     2       0.5589168363E-02      71   16    2         0.2149405176E+03      0.2194607847E+03

    ------------------------------------------------
       NWT REQUIRED            5 OUTER ITERATIONS 
       AND A TOTAL OF         35 INNER ITERATIONS.
    ------------------------------------------------

 NO OUTPUT CONTROL FOR STRESS PERIOD   20   TIME STEP    7
 
 SOLVING FOR HEAD 
                                                   Max.-Head-Change                         Max.-Flux-Residual
  Residual-Control   Outer-Iter.   Inner-Iter.     Column Row Layer    Maximum-Head-Change  Column Row Layer    Maximum-Flux-Residual          L2-NORM 
          0                 1          11            73   14     2       0.4579352935E+01      73   14    2         0.1110734595E+06      0.6486575774E+06
          0                 2          10            71   16     2       0.9447861377E+01      71   16    2         0.6448500582E+05      0.9246727206E+05
          0                 3           6            71   16     2      -0.1017864736E+01      71   16    2        -0.8010929727E+04      0.8435156578E+04
          0                 4           4            34   33     1      -0.4517238183E-02      71   15    2         0.1474480341E+03      0.1981864647E+03

    ------------------------------------------------
       NWT REQUIRED            4 OUTER ITERATIONS 
       AND A TOTAL OF         31 INNER ITERATIONS.
    ------------------------------------------------

 NO OUTPUT CONTROL FOR STRESS PERIOD   20   TIME STEP    8
 
 SOLVING FOR HEAD 
                                                   Max.-Head-Change                         Max.-Flux-Residual
  Residual-Control   Outer-Iter.   Inner-Iter.     Column Row Layer    Maximum-Head-Change  Column Row Layer    Maximum-Flux-Residual          L2-NORM 
          0                 1          11            71   16     1       0.4422418468E+01      71   16    1         0.1130739363E+06      0.6409481315E+06
          0                 2          10            18   39     2      -0.1177563106E+01      64   28    1        -0.1639674502E+05      0.6781425077E+05
          0                 3           7            18   39     2       0.1034235088E+00      18   39    2         0.6835371907E+03      0.1188861683E+04
          0                 4           4            18   39     2       0.3069740448E-03      18   39    2         0.1922505779E+01      0.2692913336E+01

    ------------------------------------------------
       NWT REQUIRED            4 OUTER ITERATIONS 
       AND A TOTAL OF         32 INNER ITERATIONS.
    ------------------------------------------------

 NO OUTPUT CONTROL FOR STRESS PERIOD   20   TIME STEP    9
 
 SOLVING FOR HEAD 
                                                   Max.-Head-Change                         Max.-Flux-Residual
  Residual-Control   Outer-Iter.   Inner-Iter.     Column Row Layer    Maximum-Head-Change  Column Row Layer    Maximum-Flux-Residual          L2-NORM 
          0                 1          11            71   16     1       0.4173656685E+01      71   16    1         0.1104672729E+06      0.6312696086E+06
          0                 2          10            73   14     1      -0.2784803124E+01      73   14    1        -0.9652706595E+05      0.1162190598E+06
          0                 3           6            73   15     3      -0.1002041043E+00      73   15    3        -0.9735187560E+03      0.1269124481E+04
          0                 4           2            72   14     1       0.4779668018E-03      72   14    1         0.3389077041E+01      0.4691322546E+01

    ------------------------------------------------
       NWT REQUIRED            4 OUTER ITERATIONS 
       AND A TOTAL OF         29 INNER ITERATIONS.
    ------------------------------------------------

 NO OUTPUT CONTROL FOR STRESS PERIOD   20   TIME STEP   10
 
 SOLVING FOR HEAD 
                                                   Max.-Head-Change                         Max.-Flux-Residual
  Residual-Control   Outer-Iter.   Inner-Iter.     Column Row Layer    Maximum-Head-Change  Column Row Layer    Maximum-Flux-Residual          L2-NORM 
          0                 1          11            73   15     3       0.8369148725E+01      71   16    1         0.1042749531E+06      0.6202684922E+06
          0                 2          10            66   25     1      -0.1058059721E+01      66   25    1        -0.5149560590E+05      0.8176628075E+05
          0                 3           6            31   47     2       0.7683711999E-01      26   40    1         0.6161402602E+03      0.8606766787E+03
          0                 4           4            31   47     2       0.2045081261E-03      31   47    2         0.1261955072E+01      0.2204401066E+01

    ------------------------------------------------
       NWT REQUIRED            4 OUTER ITERATIONS 
       AND A TOTAL OF         31 INNER ITERATIONS.
    ------------------------------------------------

 NO OUTPUT CONTROL FOR STRESS PERIOD   20   TIME STEP   11
 
 SOLVING FOR HEAD 
                                                   Max.-Head-Change                         Max.-Flux-Residual
  Residual-Control   Outer-Iter.   Inner-Iter.     Column Row Layer    Maximum-Head-Change  Column Row Layer    Maximum-Flux-Residual          L2-NORM 
          0                 1          11            73   15     2       0.4100008404E+01      71   16    1         0.9849305281E+05      0.6143452105E+06
          0                 2          10            17   32     2      -0.3960901589E+00      71   16    1        -0.9928960843E+04      0.6269200681E+05
          0                 3           6            17   32     2       0.3529307600E-01      23   32    1         0.5630192795E+03      0.8596842816E+03
          0                 4           3            66    2     2      -0.1020272530E-03      23   32    1         0.8439112082E+00      0.1405373687E+01

    ------------------------------------------------
       NWT REQUIRED            4 OUTER ITERATIONS 
       AND A TOTAL OF         30 INNER ITERATIONS.
    ------------------------------------------------

 OUTPUT CONTROL FOR STRESS PERIOD   20   TIME STEP   12
    SAVE BUDGET
 UBDSV1 SAVING "         STORAGE" ON UNIT  39 AT TIME STEP 12, STRESS PERIOD  20
 UBDSV2 SAVING "   CONSTANT HEAD" ON UNIT  39 AT TIME STEP 12, STRESS PERIOD  20
 UBDSV1 SAVING "FLOW RIGHT FACE " ON UNIT  39 AT TIME STEP 12, STRESS PERIOD  20
 UBDSV1 SAVING "FLOW FRONT FACE " ON UNIT  39 AT TIME STEP 12, STRESS PERIOD  20
 UBDSV1 SAVING "FLOW LOWER FACE " ON UNIT  39 AT TIME STEP 12, STRESS PERIOD  20
 UBDSV4 SAVING "           WELLS" ON UNIT  39 AT TIME STEP 12, STRESS PERIOD  20
 UBDSV3 SAVING "              ET" ON UNIT  39 AT TIME STEP 12, STRESS PERIOD  20
 UBDSV3 SAVING "        RECHARGE" ON UNIT  39 AT TIME STEP 12, STRESS PERIOD  20
1
  VOLUMETRIC BUDGET FOR ENTIRE MODEL AT END OF TIME STEP   12, STRESS PERIOD  20
  ------------------------------------------------------------------------------

     CUMULATIVE VOLUMES      L**3       RATES FOR THIS TIME STEP      L**3/T
     ------------------                 ------------------------

           IN:                                      IN:
           ---                                      ---
             STORAGE = 97018707968.0000               STORAGE =    23592670.0000
       CONSTANT HEAD =  9398874112.0000         CONSTANT HEAD =     1476531.0000
               WELLS =  8953300992.0000                 WELLS =     1225642.0000
                  ET =           0.0000                    ET =           0.0000
            RECHARGE =102061105152.0000              RECHARGE =    20980054.0000

            TOTAL IN =217431982080.0000              TOTAL IN =    47274896.0000

          OUT:                                     OUT:
          ----                                     ----
             STORAGE = 10578807808.0000               STORAGE =     5221614.0000
       CONSTANT HEAD = 26323523584.0000         CONSTANT HEAD =     3844390.0000
               WELLS =172936921088.0000                 WELLS =    37460224.0000
                  ET =  7592856064.0000                    ET =      748674.9375
            RECHARGE =           0.0000              RECHARGE =           0.0000

           TOTAL OUT =217432096768.0000             TOTAL OUT =    47274904.0000

            IN - OUT =     -114688.0000              IN - OUT =          -8.0000

 PERCENT DISCREPANCY =          -0.00     PERCENT DISCREPANCY =          -0.00






         TIME SUMMARY AT END OF TIME STEP   12 IN STRESS PERIOD   20
                    SECONDS     MINUTES      HOURS       DAYS        YEARS
                    -----------------------------------------------------------
   TIME STEP LENGTH 2.62800E+06  43800.      730.00      30.417     8.32763E-02
 STRESS PERIOD TIME 3.15360E+07 5.25600E+05  8760.0      365.00     0.99932    
         TOTAL TIME 6.31151E+08 1.05192E+07 1.75320E+05  7305.0      20.000    
1
1
                            STRESS PERIOD NO.   21, LENGTH =   366.0000    
                            -----------------------------------------------

                              NUMBER OF TIME STEPS =    12

                               MULTIPLIER FOR DELT =     1.000

                            INITIAL TIME STEP SIZE =   30.50000    

   1825 WELLS

 REUSING SURF FROM LAST STRESS PERIOD

 REUSING EVTR FROM LAST STRESS PERIOD

 REUSING EXDP FROM LAST STRESS PERIOD



                           RECHARGE
 READING ON UNIT   16 WITH FORMAT: (15F5.0)            


     63 TIME-VARIANT SPECIFIED-HEAD CELLS
 
 SOLVING FOR HEAD 
                                                   Max.-Head-Change                         Max.-Flux-Residual
  Residual-Control   Outer-Iter.   Inner-Iter.     Column Row Layer    Maximum-Head-Change  Column Row Layer    Maximum-Flux-Residual          L2-NORM 
          0                 1          12            65    1     2      -0.4705222058E+02      58  101    3        -0.3243069522E+06      0.1157899965E+07
          0                 2          10            66   14     1       0.2197528849E+01      58  101    3         0.3543262499E+05      0.1180331121E+06
          0                 3           6            66   25     1       0.1226552536E+00      66   25    1         0.1746742116E+04      0.2199392527E+04
          0                 4           4            66    3     2       0.3250954305E-02      63   95    1         0.1941724464E+02      0.3021174033E+02

    ------------------------------------------------
       NWT REQUIRED            4 OUTER ITERATIONS 
       AND A TOTAL OF         32 INNER ITERATIONS.
    ------------------------------------------------

 NO OUTPUT CONTROL FOR STRESS PERIOD   21   TIME STEP    1
 
 SOLVING FOR HEAD 
                                                   Max.-Head-Change                         Max.-Flux-Residual
  Residual-Control   Outer-Iter.   Inner-Iter.     Column Row Layer    Maximum-Head-Change  Column Row Layer    Maximum-Flux-Residual          L2-NORM 
          0                 1          11            51  103     3       0.3877760063E+01      70   19    1        -0.1134001946E+06      0.7184872615E+06
          0                 2          10            69   21     1      -0.9440010134E+01      69   21    1        -0.4497420070E+05      0.9030327029E+05
          0                 3           6            69   21     1       0.9012011540E+00      69   21    1         0.5620668642E+04      0.8381475853E+04
          0                 4           3            69   21     1       0.5104228135E-02      69   20    1         0.5368559870E+02      0.6593390178E+02

    ------------------------------------------------
       NWT REQUIRED            4 OUTER ITERATIONS 
       AND A TOTAL OF         30 INNER ITERATIONS.
    ------------------------------------------------

 NO OUTPUT CONTROL FOR STRESS PERIOD   21   TIME STEP    2
 
 SOLVING FOR HEAD 
                                                   Max.-Head-Change                         Max.-Flux-Residual
  Residual-Control   Outer-Iter.   Inner-Iter.     Column Row Layer    Maximum-Head-Change  Column Row Layer    Maximum-Flux-Residual          L2-NORM 
          0                 1          11            69   21     1      -0.7503009707E+01      58  101    2        -0.9014082601E+05      0.6327554015E+06
          0                 2          10            65    2     2      -0.7700274698E+02      65    2    2        -0.3119663301E+05      0.7147186946E+05
          0                 3           7            65    2     2       0.2494194100E+01      25   38    1        -0.6001354647E+04      0.6914901838E+04
          0                 4           6            65    2     2       0.1406544852E+00      25   38    1        -0.5408072517E+03      0.5451653389E+03
          0                 5           5            65    2     2       0.7925538523E-02      25   38    1        -0.4862397592E+02      0.4909005759E+02

    ------------------------------------------------
       NWT REQUIRED            5 OUTER ITERATIONS 
       AND A TOTAL OF         39 INNER ITERATIONS.
    ------------------------------------------------

 NO OUTPUT CONTROL FOR STRESS PERIOD   21   TIME STEP    3
 
 SOLVING FOR HEAD 
                                                   Max.-Head-Change                         Max.-Flux-Residual
  Residual-Control   Outer-Iter.   Inner-Iter.     Column Row Layer    Maximum-Head-Change  Column Row Layer    Maximum-Flux-Residual          L2-NORM 
          0                 1          11            66    1     2      -0.6349539993E+02      58  101    2        -0.8053784769E+05      0.5900717671E+06
          0                 2          10            66    1     2       0.1729417487E+01      72   15    2         0.3618129116E+05      0.7128157383E+05
          0                 3           7            66    1     2       0.1085996266E+00      21   50    2        -0.4583395994E+04      0.4737026870E+04
          0                 4           6            21   50     2      -0.8237276576E-02      21   50    2        -0.4127649548E+03      0.4128807440E+03

    ------------------------------------------------
       NWT REQUIRED            4 OUTER ITERATIONS 
       AND A TOTAL OF         34 INNER ITERATIONS.
    ------------------------------------------------

 NO OUTPUT CONTROL FOR STRESS PERIOD   21   TIME STEP    4
 
 SOLVING FOR HEAD 
                                                   Max.-Head-Change                         Max.-Flux-Residual
  Residual-Control   Outer-Iter.   Inner-Iter.     Column Row Layer    Maximum-Head-Change  Column Row Layer    Maximum-Flux-Residual          L2-NORM 
          0                 1          11            51  103     3       0.3725173234E+01      51  103    3         0.7850791763E+05      0.5602482932E+06
          0                 2          10            66    4     2      -0.1294523237E+01      51  103    3        -0.7887021640E+04      0.5719844533E+05
          0                 3           7            66    4     2       0.4219389506E-01      12    8    1        -0.1148795767E+04      0.1353509733E+04
          0                 4           3            66    4     2       0.2475280416E-02      12    8    1         0.1424206108E+02      0.1774758141E+02

    ------------------------------------------------
       NWT REQUIRED            4 OUTER ITERATIONS 
       AND A TOTAL OF         31 INNER ITERATIONS.
    ------------------------------------------------

 NO OUTPUT CONTROL FOR STRESS PERIOD   21   TIME STEP    5
 
 SOLVING FOR HEAD 
                                                   Max.-Head-Change                         Max.-Flux-Residual
  Residual-Control   Outer-Iter.   Inner-Iter.     Column Row Layer    Maximum-Head-Change  Column Row Layer    Maximum-Flux-Residual          L2-NORM 
          0                 1          11            66    4     2      -0.1101281699E+02      51  103    3         0.7741545456E+05      0.5398227794E+06
          0                 2          10            65    6     2      -0.3675277268E+02      65    6    2        -0.2080136446E+05      0.5935822143E+05
          0                 3           7            65    6     2       0.2904577537E+01      65    6    3        -0.2017728103E+04      0.3382245919E+04
          0                 4           4            65    6     2       0.1108659135E+00      65    6    2         0.7368568362E+02      0.1048089179E+03
          0                 5           3            65    6     2       0.4211054451E-02      65    6    3         0.6021161743E+01      0.8731545807E+01

    ------------------------------------------------
       NWT REQUIRED            5 OUTER ITERATIONS 
       AND A TOTAL OF         35 INNER ITERATIONS.
    ------------------------------------------------

 NO OUTPUT CONTROL FOR STRESS PERIOD   21   TIME STEP    6
 
 SOLVING FOR HEAD 
                                                   Max.-Head-Change                         Max.-Flux-Residual
  Residual-Control   Outer-Iter.   Inner-Iter.     Column Row Layer    Maximum-Head-Change  Column Row Layer    Maximum-Flux-Residual          L2-NORM 
          0                 1          11            65    6     2      -0.4644444096E+01      51  103    3         0.7628863468E+05      0.5238790065E+06
          0                 2          10            65    3     2      -0.2114149057E+02      12    8    1         0.8916270436E+04      0.5453228363E+05
          0                 3           7            65    3     2       0.8146842008E+00      12    8    1        -0.1696712737E+04      0.2475881256E+04
          0                 4           5            65    3     2       0.4226707328E-01      15    9    1         0.8747783232E+02      0.1146386292E+03
          0                 5           3            65    3     2       0.2188813698E-02      12    8    1         0.3572675377E+01      0.5123650942E+01

    ------------------------------------------------
       NWT REQUIRED            5 OUTER ITERATIONS 
       AND A TOTAL OF         36 INNER ITERATIONS.
    ------------------------------------------------

 NO OUTPUT CONTROL FOR STRESS PERIOD   21   TIME STEP    7
 
 SOLVING FOR HEAD 
                                                   Max.-Head-Change                         Max.-Flux-Residual
  Residual-Control   Outer-Iter.   Inner-Iter.     Column Row Layer    Maximum-Head-Change  Column Row Layer    Maximum-Flux-Residual          L2-NORM 
          0                 1          11            65    3     2      -0.1587959175E+02      51  103    3         0.7513083514E+05      0.5115582961E+06
          0                 2          10            21   46     2      -0.1237622860E+01      14    6    2         0.1208992595E+05      0.5463011250E+05
          0                 3           7            21   46     2       0.1093127524E+00      15    9    1        -0.2083773459E+04      0.3240438329E+04
          0                 4           5            15    9     1       0.1770282726E-02      15    9    1         0.1892998429E+03      0.2121910817E+03

    ------------------------------------------------
       NWT REQUIRED            4 OUTER ITERATIONS 
       AND A TOTAL OF         33 INNER ITERATIONS.
    ------------------------------------------------

 NO OUTPUT CONTROL FOR STRESS PERIOD   21   TIME STEP    8
 
 SOLVING FOR HEAD 
                                                   Max.-Head-Change                         Max.-Flux-Residual
  Residual-Control   Outer-Iter.   Inner-Iter.     Column Row Layer    Maximum-Head-Change  Column Row Layer    Maximum-Flux-Residual          L2-NORM 
          0                 1          11            51  103     3       0.3499431221E+01      51  103    3         0.7394547329E+05      0.5021799332E+06
          0                 2          10            65    5     2      -0.3252948835E+02      70   19    1        -0.2252744234E+05      0.6164863058E+05
          0                 3           7            65    5     2       0.2371497803E+01      15    9    1        -0.2645267761E+04      0.5162146920E+04
          0                 4           5            65    5     2       0.1056292080E+00      15    9    1         0.3272714979E+03      0.4177260216E+03
          0                 5           4            65    5     2       0.4682227317E-02      14    7    1        -0.1925939071E+02      0.2235304278E+02

    ------------------------------------------------
       NWT REQUIRED            5 OUTER ITERATIONS 
       AND A TOTAL OF         37 INNER ITERATIONS.
    ------------------------------------------------

 NO OUTPUT CONTROL FOR STRESS PERIOD   21   TIME STEP    9
 
 SOLVING FOR HEAD 
                                                   Max.-Head-Change                         Max.-Flux-Residual
  Residual-Control   Outer-Iter.   Inner-Iter.     Column Row Layer    Maximum-Head-Change  Column Row Layer    Maximum-Flux-Residual          L2-NORM 
          0                 1          11            65    5     2      -0.7082643864E+01      51  103    3         0.7273594227E+05      0.4945104073E+06
          0                 2          10            51  103     3      -0.3137900854E+00      14    7    1        -0.1168348463E+05      0.5304184602E+05
          0                 3           7            15    9     1      -0.3014170737E-01      15    9    1        -0.2963042195E+04      0.3879138485E+04
          0                 4           6            15    9     1       0.4012074148E-02      15    9    1         0.4341149388E+03      0.4538547740E+03

    ------------------------------------------------
       NWT REQUIRED            4 OUTER ITERATIONS 
       AND A TOTAL OF         34 INNER ITERATIONS.
    ------------------------------------------------

 NO OUTPUT CONTROL FOR STRESS PERIOD   21   TIME STEP   10
 
 SOLVING FOR HEAD 
                                                   Max.-Head-Change                         Max.-Flux-Residual
  Residual-Control   Outer-Iter.   Inner-Iter.     Column Row Layer    Maximum-Head-Change  Column Row Layer    Maximum-Flux-Residual          L2-NORM 
          0                 1          11            51  103     3       0.3379942435E+01      51  103    3         0.7150563501E+05      0.4888463392E+06
          0                 2          10            51  103     3      -0.3082763161E+00      31   20    2         0.1273531478E+05      0.5469548780E+05
          0                 3           7            15    9     1      -0.3481125525E-01      15    9    1        -0.3419324043E+04      0.4207184242E+04
          0                 4           6            15    9     1       0.5273754946E-02      15    9    1         0.5701807417E+03      0.5866305293E+03

    ------------------------------------------------
       NWT REQUIRED            4 OUTER ITERATIONS 
       AND A TOTAL OF         34 INNER ITERATIONS.
    ------------------------------------------------

 NO OUTPUT CONTROL FOR STRESS PERIOD   21   TIME STEP   11

 INTERPOLATION FOR HEAD OBS# 1738, ID 2615-21-353  CHANGED BECAUSE AT LEAST ONE
 NEIGHBORING CELL REQUIRED FOR INTERPOLATION IS DRY OR INACTIVE (OBS2BAS7SE)
 
 SOLVING FOR HEAD 
                                                   Max.-Head-Change                         Max.-Flux-Residual
  Residual-Control   Outer-Iter.   Inner-Iter.     Column Row Layer    Maximum-Head-Change  Column Row Layer    Maximum-Flux-Residual          L2-NORM 
          0                 1          11            51  103     3       0.3319108914E+01      51  103    3         0.7025790698E+05      0.4831818617E+06
          0                 2          10            51  103     3      -0.3027016712E+00      15    9    1         0.1044243313E+05      0.5074991201E+05
          0                 3           7            15    9     1      -0.3806725820E-01      15    9    1        -0.3736059821E+04      0.4390083511E+04
          0                 4           6            15    9     1       0.6348341110E-02      15    9    1         0.6858337165E+03      0.6985055219E+03

    ------------------------------------------------
       NWT REQUIRED            4 OUTER ITERATIONS 
       AND A TOTAL OF         34 INNER ITERATIONS.
    ------------------------------------------------

 OUTPUT CONTROL FOR STRESS PERIOD   21   TIME STEP   12
    SAVE BUDGET
    SAVE HEAD FOR LAYERS:   1  2  3
 UBDSV1 SAVING "         STORAGE" ON UNIT  39 AT TIME STEP 12, STRESS PERIOD  21
 UBDSV2 SAVING "   CONSTANT HEAD" ON UNIT  39 AT TIME STEP 12, STRESS PERIOD  21
 UBDSV1 SAVING "FLOW RIGHT FACE " ON UNIT  39 AT TIME STEP 12, STRESS PERIOD  21
 UBDSV1 SAVING "FLOW FRONT FACE " ON UNIT  39 AT TIME STEP 12, STRESS PERIOD  21
 UBDSV1 SAVING "FLOW LOWER FACE " ON UNIT  39 AT TIME STEP 12, STRESS PERIOD  21
 UBDSV4 SAVING "           WELLS" ON UNIT  39 AT TIME STEP 12, STRESS PERIOD  21
 UBDSV3 SAVING "              ET" ON UNIT  39 AT TIME STEP 12, STRESS PERIOD  21
 UBDSV3 SAVING "        RECHARGE" ON UNIT  39 AT TIME STEP 12, STRESS PERIOD  21

 INTERPOLATION FOR HEAD OBS# 1079, ID 2927-22-17   CHANGED BECAUSE AT LEAST ONE
 NEIGHBORING CELL REQUIRED FOR INTERPOLATION IS DRY OR INACTIVE (OBS2BAS7SE)

 INTERPOLATION FOR HEAD OBS# 3406, ID 1428-22-12   CHANGED BECAUSE AT LEAST ONE
 NEIGHBORING CELL REQUIRED FOR INTERPOLATION IS DRY OR INACTIVE (OBS2BAS7SE)

 INTERPOLATION FOR HEAD OBS# 3712, ID 1471-22-26   CHANGED BECAUSE AT LEAST ONE
 NEIGHBORING CELL REQUIRED FOR INTERPOLATION IS DRY OR INACTIVE (OBS2BAS7SE)

 INTERPOLATION FOR HEAD OBS# 3780, ID 1349-22-30   CHANGED BECAUSE AT LEAST ONE
 NEIGHBORING CELL REQUIRED FOR INTERPOLATION IS DRY OR INACTIVE (OBS2BAS7SE)

 HEAD WILL BE SAVED ON UNIT   31 AT END OF TIME STEP   12, STRESS PERIOD   21
1
  VOLUMETRIC BUDGET FOR ENTIRE MODEL AT END OF TIME STEP   12, STRESS PERIOD  21
  ------------------------------------------------------------------------------

     CUMULATIVE VOLUMES      L**3       RATES FOR THIS TIME STEP      L**3/T
     ------------------                 ------------------------

           IN:                                      IN:
           ---                                      ---
             STORAGE =106119200768.0000               STORAGE =    23958280.0000
       CONSTANT HEAD =  9912506368.0000         CONSTANT HEAD =     1374399.7500
               WELLS =  9401886720.0000                 WELLS =     1225642.0000
                  ET =           0.0000                    ET =           0.0000
            RECHARGE =109100064768.0000              RECHARGE =    19232074.0000

            TOTAL IN =234533650432.0000              TOTAL IN =    45790396.0000

          OUT:                                     OUT:
          ----                                     ----
             STORAGE = 11371408384.0000               STORAGE =     1218485.0000
       CONSTANT HEAD = 27737556992.0000         CONSTANT HEAD =     3897489.2500
               WELLS =187512094720.0000                 WELLS =    39756528.0000
                  ET =  7912691200.0000                    ET =      917949.8125
            RECHARGE =           0.0000              RECHARGE =           0.0000

           TOTAL OUT =234533748736.0000             TOTAL OUT =    45790448.0000

            IN - OUT =      -98304.0000              IN - OUT =         -52.0000

 PERCENT DISCREPANCY =          -0.00     PERCENT DISCREPANCY =          -0.00






         TIME SUMMARY AT END OF TIME STEP   12 IN STRESS PERIOD   21
                    SECONDS     MINUTES      HOURS       DAYS        YEARS
                    -----------------------------------------------------------
   TIME STEP LENGTH 2.63520E+06  43920.      732.00      30.500     8.35044E-02
 STRESS PERIOD TIME 3.16224E+07 5.27040E+05  8784.0      366.00      1.0021    
         TOTAL TIME 6.62774E+08 1.10462E+07 1.84104E+05  7671.0      21.002    
1
1
                            STRESS PERIOD NO.   22, LENGTH =   365.0000    
                            -----------------------------------------------

                              NUMBER OF TIME STEPS =    12

                               MULTIPLIER FOR DELT =     1.000

                            INITIAL TIME STEP SIZE =   30.41667    

   1856 WELLS

 REUSING SURF FROM LAST STRESS PERIOD

 REUSING EVTR FROM LAST STRESS PERIOD

 REUSING EXDP FROM LAST STRESS PERIOD



                           RECHARGE
 READING ON UNIT   16 WITH FORMAT: (15F5.0)            


     63 TIME-VARIANT SPECIFIED-HEAD CELLS
 
 SOLVING FOR HEAD 
                                                   Max.-Head-Change                         Max.-Flux-Residual
  Residual-Control   Outer-Iter.   Inner-Iter.     Column Row Layer    Maximum-Head-Change  Column Row Layer    Maximum-Flux-Residual          L2-NORM 
          0                 1          12            65    2     2       0.1085137193E+03      18   17    2         0.2802126996E+06      0.9977989076E+06
          0                 2          10            65    5     2      -0.2379597240E+02      65    5    2        -0.6363342791E+06      0.9500249863E+06
          0                 3           7            66    5     2       0.3178199536E+01      65    5    2        -0.6916747473E+04      0.9141628701E+04
          0                 4           4            66    5     2       0.4855525427E+00      65    4    2         0.3157514580E+03      0.4590119180E+03
          0                 5           3            66    5     2       0.7304993034E-01      66    5    2         0.3041269730E+02      0.5083708711E+02
          0                 6           2            66    5     2       0.1098338840E-01      66    5    2         0.4572404148E+01      0.6219792408E+01
          0                 7           2            66    5     2       0.1650363766E-02      66    5    2         0.6870033296E+00      0.8292127441E+00

    ------------------------------------------------
       NWT REQUIRED            7 OUTER ITERATIONS 
       AND A TOTAL OF         40 INNER ITERATIONS.
    ------------------------------------------------

 NO OUTPUT CONTROL FOR STRESS PERIOD   22   TIME STEP    1

 INTERPOLATION FOR HEAD OBS# 1565, ID 2931-22-31   CHANGED BECAUSE AT LEAST ONE
 NEIGHBORING CELL REQUIRED FOR INTERPOLATION IS DRY OR INACTIVE (OBS2BAS7SE)

 INTERPOLATION FOR HEAD OBS# 3756, ID 1427-22-31   CHANGED BECAUSE AT LEAST ONE
 NEIGHBORING CELL REQUIRED FOR INTERPOLATION IS DRY OR INACTIVE (OBS2BAS7SE)

 INTERPOLATION FOR HEAD OBS# 5432, ID 846-22-33    CHANGED BECAUSE AT LEAST ONE
 NEIGHBORING CELL REQUIRED FOR INTERPOLATION IS DRY OR INACTIVE (OBS2BAS7SE)

 INTERPOLATION FOR HEAD OBS# 5693, ID 1168-22-32   CHANGED BECAUSE AT LEAST ONE
 NEIGHBORING CELL REQUIRED FOR INTERPOLATION IS DRY OR INACTIVE (OBS2BAS7SE)

 INTERPOLATION FOR HEAD OBS# 6267, ID 987-22-33    CHANGED BECAUSE AT LEAST ONE
 NEIGHBORING CELL REQUIRED FOR INTERPOLATION IS DRY OR INACTIVE (OBS2BAS7SE)
 
 SOLVING FOR HEAD 
                                                   Max.-Head-Change                         Max.-Flux-Residual
  Residual-Control   Outer-Iter.   Inner-Iter.     Column Row Layer    Maximum-Head-Change  Column Row Layer    Maximum-Flux-Residual          L2-NORM 
          0                 1          11            51  103     3       0.4925442918E+01      72   15    1         0.1085717659E+06      0.6923698027E+06
          0                 2          10            64   28     1      -0.8872366164E+00      64   28    1        -0.4283633462E+05      0.8228292271E+05
          0                 3           6            31   21     1       0.3486204252E-01      31   21    1         0.9215010907E+03      0.1012907615E+04
          0                 4           3            60   61     1       0.1806053641E-03      60   61    1         0.1495813620E+02      0.1530497536E+02

    ------------------------------------------------
       NWT REQUIRED            4 OUTER ITERATIONS 
       AND A TOTAL OF         30 INNER ITERATIONS.
    ------------------------------------------------

 NO OUTPUT CONTROL FOR STRESS PERIOD   22   TIME STEP    2

 INTERPOLATION FOR HEAD OBS# 3198, ID 2435-22-72   CHANGED BECAUSE AT LEAST ONE
 NEIGHBORING CELL REQUIRED FOR INTERPOLATION IS DRY OR INACTIVE (OBS2BAS7SE)
 
 SOLVING FOR HEAD 
                                                   Max.-Head-Change                         Max.-Flux-Residual
  Residual-Control   Outer-Iter.   Inner-Iter.     Column Row Layer    Maximum-Head-Change  Column Row Layer    Maximum-Flux-Residual          L2-NORM 
          0                 1          11            51  103     3       0.4825267808E+01      51  103    3         0.1026615778E+06      0.6336015768E+06
          0                 2          10            73   14     1      -0.1971148472E+01      73   14    1        -0.6737944893E+05      0.1004497994E+06
          0                 3           6            27   35     1       0.1296659320E-01      27   35    1         0.3944430170E+03      0.4256561561E+03
          0                 4           3            72   14     1       0.2688537963E-03      14    8    1        -0.2971377313E+01      0.4176313597E+01

    ------------------------------------------------
       NWT REQUIRED            4 OUTER ITERATIONS 
       AND A TOTAL OF         30 INNER ITERATIONS.
    ------------------------------------------------

 NO OUTPUT CONTROL FOR STRESS PERIOD   22   TIME STEP    3
 
 SOLVING FOR HEAD 
                                                   Max.-Head-Change                         Max.-Flux-Residual
  Residual-Control   Outer-Iter.   Inner-Iter.     Column Row Layer    Maximum-Head-Change  Column Row Layer    Maximum-Flux-Residual          L2-NORM 
          0                 1          11            51  103     3       0.4723724505E+01      51  103    3         0.1005794708E+06      0.6029537294E+06
          0                 2          10            66   25     1      -0.4939701672E+00      66   25    1        -0.2262776466E+05      0.6492894648E+05
          0                 3           7            21   23     2       0.8928420509E-02      21   23    2         0.6518644886E+03      0.6587664135E+03

    ------------------------------------------------
       NWT REQUIRED            3 OUTER ITERATIONS 
       AND A TOTAL OF         28 INNER ITERATIONS.
    ------------------------------------------------

 NO OUTPUT CONTROL FOR STRESS PERIOD   22   TIME STEP    4
 
 SOLVING FOR HEAD 
                                                   Max.-Head-Change                         Max.-Flux-Residual
  Residual-Control   Outer-Iter.   Inner-Iter.     Column Row Layer    Maximum-Head-Change  Column Row Layer    Maximum-Flux-Residual          L2-NORM 
          0                 1          11            51  103     3       0.4621182556E+01      51  103    3         0.9846854484E+05      0.5835241987E+06
          0                 2          10            72   15     2       0.3647684160E+01      72   15    2         0.3213609592E+05      0.7110880354E+05
          0                 3           7            72   15     2      -0.3312938146E+00      59   98    1        -0.9313907605E+04      0.1170914571E+05
          0                 4           5            59   98     1      -0.1573802382E-01      59   98    1        -0.8401336817E+03      0.1010871870E+04
          0                 5           4            59   98     1      -0.1415372318E-02      59   98    1        -0.7554341058E+02      0.9089100017E+02

    ------------------------------------------------
       NWT REQUIRED            5 OUTER ITERATIONS 
       AND A TOTAL OF         37 INNER ITERATIONS.
    ------------------------------------------------

 NO OUTPUT CONTROL FOR STRESS PERIOD   22   TIME STEP    5
 
 SOLVING FOR HEAD 
                                                   Max.-Head-Change                         Max.-Flux-Residual
  Residual-Control   Outer-Iter.   Inner-Iter.     Column Row Layer    Maximum-Head-Change  Column Row Layer    Maximum-Flux-Residual          L2-NORM 
          0                 1          11            51  103     3       0.4517998722E+01      51  103    3         0.9633648284E+05      0.5714845503E+06
          0                 2          10            51  103     3      -0.4124318634E+00      12    8    1        -0.1344498987E+05      0.5939165014E+05
          0                 3           6            68  101     1       0.2479365140E-01      12    8    1         0.1325203984E+04      0.1596135701E+04
          0                 4           4            23    8     1       0.1269406063E-02      23    8    1         0.2499049685E+02      0.3627546336E+02

    ------------------------------------------------
       NWT REQUIRED            4 OUTER ITERATIONS 
       AND A TOTAL OF         31 INNER ITERATIONS.
    ------------------------------------------------

 NO OUTPUT CONTROL FOR STRESS PERIOD   22   TIME STEP    6
 
 SOLVING FOR HEAD 
                                                   Max.-Head-Change                         Max.-Flux-Residual
  Residual-Control   Outer-Iter.   Inner-Iter.     Column Row Layer    Maximum-Head-Change  Column Row Layer    Maximum-Flux-Residual          L2-NORM 
          0                 1          11            51  103     3       0.4414515647E+01      51  103    3         0.9419072731E+05      0.5637027691E+06
          0                 2          10            70   19     2       0.1483166081E+01      70   17    1        -0.2340242896E+05      0.6510620434E+05
          0                 3           7            70   19     2      -0.1344641017E+00      25   37    1        -0.3768264521E+04      0.4425607485E+04
          0                 4           6            25   37     1      -0.5963411924E-02      25   37    1        -0.3394288925E+03      0.3396590555E+03

    ------------------------------------------------
       NWT REQUIRED            4 OUTER ITERATIONS 
       AND A TOTAL OF         34 INNER ITERATIONS.
    ------------------------------------------------

 NO OUTPUT CONTROL FOR STRESS PERIOD   22   TIME STEP    7
 
 SOLVING FOR HEAD 
                                                   Max.-Head-Change                         Max.-Flux-Residual
  Residual-Control   Outer-Iter.   Inner-Iter.     Column Row Layer    Maximum-Head-Change  Column Row Layer    Maximum-Flux-Residual          L2-NORM 
          0                 1          11            70   19     2       0.4851688817E+01      51  103    3         0.9203842502E+05      0.5566614024E+06
          0                 2          10            70   19     2      -0.4402580084E+00      31   23    2         0.1184359308E+05      0.5965174792E+05
          0                 3           6            25   37     1       0.3095919226E-01      25   37    1         0.8219399679E+03      0.1154753210E+04
          0                 4           3            75   93     1       0.2604552966E-03      14    8    1        -0.1189702165E+02      0.1196347358E+02

    ------------------------------------------------
       NWT REQUIRED            4 OUTER ITERATIONS 
       AND A TOTAL OF         30 INNER ITERATIONS.
    ------------------------------------------------

 NO OUTPUT CONTROL FOR STRESS PERIOD   22   TIME STEP    8
 
 SOLVING FOR HEAD 
                                                   Max.-Head-Change                         Max.-Flux-Residual
  Residual-Control   Outer-Iter.   Inner-Iter.     Column Row Layer    Maximum-Head-Change  Column Row Layer    Maximum-Flux-Residual          L2-NORM 
          0                 1          11            51  103     3       0.4207936463E+01      51  103    3         0.8988635166E+05      0.5523437189E+06
          0                 2          10            66   25     2       0.4476306321E+00      66   25    2         0.1018770380E+05      0.5670451355E+05
          0                 3           6            66   25     2      -0.4068725625E-01      66   25    2        -0.9859751180E+03      0.1178975254E+04
          0                 4           3            14    8     1      -0.1331617633E-03      14    8    1        -0.1199301013E+02      0.1200005710E+02

    ------------------------------------------------
       NWT REQUIRED            4 OUTER ITERATIONS 
       AND A TOTAL OF         30 INNER ITERATIONS.
    ------------------------------------------------

 NO OUTPUT CONTROL FOR STRESS PERIOD   22   TIME STEP    9
 
 SOLVING FOR HEAD 
                                                   Max.-Head-Change                         Max.-Flux-Residual
  Residual-Control   Outer-Iter.   Inner-Iter.     Column Row Layer    Maximum-Head-Change  Column Row Layer    Maximum-Flux-Residual          L2-NORM 
          0                 1          11            51  103     3       0.4105434063E+01      51  103    3         0.8774092334E+05      0.5470000656E+06
          0                 2          10            73   14     2      -0.3862045103E+00      51  103    3        -0.8812544713E+04      0.5617049578E+05
          0                 3           6            73   14     2       0.2174303300E+00      73   14    2         0.8601185869E+04      0.8665037128E+04
          0                 4           4            73   14     2       0.1955743575E-01      73   14    2         0.7736344826E+03      0.7737514819E+03
          0                 5           3            73   14     2       0.1758342557E-02      73   14    2         0.6954595106E+02      0.6955003552E+02

    ------------------------------------------------
       NWT REQUIRED            5 OUTER ITERATIONS 
       AND A TOTAL OF         34 INNER ITERATIONS.
    ------------------------------------------------

 NO OUTPUT CONTROL FOR STRESS PERIOD   22   TIME STEP   10
 
 SOLVING FOR HEAD 
                                                   Max.-Head-Change                         Max.-Flux-Residual
  Residual-Control   Outer-Iter.   Inner-Iter.     Column Row Layer    Maximum-Head-Change  Column Row Layer    Maximum-Flux-Residual          L2-NORM 
          0                 1          11            51  103     3       0.4003817421E+01      51  103    3         0.8560812041E+05      0.5429437521E+06
          0                 2          10            73   14     2       0.3438270647E+01      73   14    2         0.3460887323E+05      0.6591521353E+05
          0                 3           6            73   14     2      -0.3124513603E+00      73   14    2        -0.3450094031E+04      0.3520345596E+04
          0                 4           4            81   61     1       0.1854630430E-02      14    8    1        -0.1276696897E+02      0.1289774271E+02

    ------------------------------------------------
       NWT REQUIRED            4 OUTER ITERATIONS 
       AND A TOTAL OF         31 INNER ITERATIONS.
    ------------------------------------------------

 NO OUTPUT CONTROL FOR STRESS PERIOD   22   TIME STEP   11
 
 SOLVING FOR HEAD 
                                                   Max.-Head-Change                         Max.-Flux-Residual
  Residual-Control   Outer-Iter.   Inner-Iter.     Column Row Layer    Maximum-Head-Change  Column Row Layer    Maximum-Flux-Residual          L2-NORM 
          0                 1          11            51  103     3       0.3903329335E+01      51  103    3         0.8349347673E+05      0.5402876602E+06
          0                 2          10            51  103     3      -0.3559989257E+00      20   23    2         0.1262302028E+05      0.5790339820E+05
          0                 3           6            14    2     1       0.2471471226E-01      14    2    1         0.6004115062E+03      0.9252279003E+03
          0                 4           3            14    8     1      -0.1356456399E-03      14    8    1        -0.1225305018E+02      0.1246211745E+02

    ------------------------------------------------
       NWT REQUIRED            4 OUTER ITERATIONS 
       AND A TOTAL OF         30 INNER ITERATIONS.
    ------------------------------------------------

 OUTPUT CONTROL FOR STRESS PERIOD   22   TIME STEP   12
    SAVE BUDGET
 UBDSV1 SAVING "         STORAGE" ON UNIT  39 AT TIME STEP 12, STRESS PERIOD  22
 UBDSV2 SAVING "   CONSTANT HEAD" ON UNIT  39 AT TIME STEP 12, STRESS PERIOD  22
 UBDSV1 SAVING "FLOW RIGHT FACE " ON UNIT  39 AT TIME STEP 12, STRESS PERIOD  22
 UBDSV1 SAVING "FLOW FRONT FACE " ON UNIT  39 AT TIME STEP 12, STRESS PERIOD  22
 UBDSV1 SAVING "FLOW LOWER FACE " ON UNIT  39 AT TIME STEP 12, STRESS PERIOD  22
 UBDSV4 SAVING "           WELLS" ON UNIT  39 AT TIME STEP 12, STRESS PERIOD  22
 UBDSV3 SAVING "              ET" ON UNIT  39 AT TIME STEP 12, STRESS PERIOD  22
 UBDSV3 SAVING "        RECHARGE" ON UNIT  39 AT TIME STEP 12, STRESS PERIOD  22
1
  VOLUMETRIC BUDGET FOR ENTIRE MODEL AT END OF TIME STEP   12, STRESS PERIOD  22
  ------------------------------------------------------------------------------

     CUMULATIVE VOLUMES      L**3       RATES FOR THIS TIME STEP      L**3/T
     ------------------                 ------------------------

           IN:                                      IN:
           ---                                      ---
             STORAGE =114792284160.0000               STORAGE =    23396144.0000
       CONSTANT HEAD = 10425621504.0000         CONSTANT HEAD =     1430404.3750
               WELLS =  9849243648.0000                 WELLS =     1225642.0000
                  ET =           0.0000                    ET =           0.0000
            RECHARGE =116823023616.0000              RECHARGE =    21158826.0000

            TOTAL IN =251890171904.0000              TOTAL IN =    47211016.0000

          OUT:                                     OUT:
          ----                                     ----
             STORAGE = 12955546624.0000               STORAGE =     4124496.7500
       CONSTANT HEAD = 29103765504.0000         CONSTANT HEAD =     3687025.5000
               WELLS =201632071680.0000                 WELLS =    38677168.0000
                  ET =  8198939136.0000                    ET =      722329.1875
            RECHARGE =           0.0000              RECHARGE =           0.0000

           TOTAL OUT =251890335744.0000             TOTAL OUT =    47211016.0000

            IN - OUT =     -163840.0000              IN - OUT =           0.0000

 PERCENT DISCREPANCY =          -0.00     PERCENT DISCREPANCY =           0.00






         TIME SUMMARY AT END OF TIME STEP   12 IN STRESS PERIOD   22
                    SECONDS     MINUTES      HOURS       DAYS        YEARS
                    -----------------------------------------------------------
   TIME STEP LENGTH 2.62800E+06  43800.      730.00      30.417     8.32763E-02
 STRESS PERIOD TIME 3.15360E+07 5.25600E+05  8760.0      365.00     0.99932    
         TOTAL TIME 6.94309E+08 1.15718E+07 1.92864E+05  8036.0      22.001    
1
1
                            STRESS PERIOD NO.   23, LENGTH =   365.0000    
                            -----------------------------------------------

                              NUMBER OF TIME STEPS =    12

                               MULTIPLIER FOR DELT =     1.000

                            INITIAL TIME STEP SIZE =   30.41667    

   1884 WELLS

 REUSING SURF FROM LAST STRESS PERIOD

 REUSING EVTR FROM LAST STRESS PERIOD

 REUSING EXDP FROM LAST STRESS PERIOD



                           RECHARGE
 READING ON UNIT   16 WITH FORMAT: (15F5.0)            


     63 TIME-VARIANT SPECIFIED-HEAD CELLS
 
 SOLVING FOR HEAD 
                                                   Max.-Head-Change                         Max.-Flux-Residual
  Residual-Control   Outer-Iter.   Inner-Iter.     Column Row Layer    Maximum-Head-Change  Column Row Layer    Maximum-Flux-Residual          L2-NORM 
          0                 1          12            92   77     2      -0.4505934542E+02      59   85    3        -0.4311739340E+06      0.1021827855E+07
          0                 2          10            65    2     2      -0.7116385584E+02      59   85    3         0.1558766763E+06      0.1854660458E+06
          0                 3           6            65    2     2       0.2208400405E+01      65    2    3        -0.2825105314E+04      0.3763981476E+04
          0                 4           3            65    2     2       0.1532808009E+00      65    2    2         0.6815996312E+02      0.7451032825E+02
          0                 5           2            65    2     2       0.8817287187E-02      65    2    3         0.6093191803E+01      0.7842173152E+01

    ------------------------------------------------
       NWT REQUIRED            5 OUTER ITERATIONS 
       AND A TOTAL OF         33 INNER ITERATIONS.
    ------------------------------------------------

 NO OUTPUT CONTROL FOR STRESS PERIOD   23   TIME STEP    1
 
 SOLVING FOR HEAD 
                                                   Max.-Head-Change                         Max.-Flux-Residual
  Residual-Control   Outer-Iter.   Inner-Iter.     Column Row Layer    Maximum-Head-Change  Column Row Layer    Maximum-Flux-Residual          L2-NORM 
          0                 1          11            66    1     2      -0.4874656868E+02      59   85    2        -0.1200148678E+06      0.7161167056E+06
          0                 2          10            58   99     2      -0.1949059572E+01      34   24    2         0.1294950135E+05      0.7396450622E+05
          0                 3           6            58   99     2       0.2596303243E+00      58   99    2         0.2289294377E+04      0.2723018995E+04
          0                 4           3            65    2     2       0.5592905801E-02      59   99    2        -0.5711131179E+02      0.6018469969E+02

    ------------------------------------------------
       NWT REQUIRED            4 OUTER ITERATIONS 
       AND A TOTAL OF         30 INNER ITERATIONS.
    ------------------------------------------------

 NO OUTPUT CONTROL FOR STRESS PERIOD   23   TIME STEP    2
 
 SOLVING FOR HEAD 
                                                   Max.-Head-Change                         Max.-Flux-Residual
  Residual-Control   Outer-Iter.   Inner-Iter.     Column Row Layer    Maximum-Head-Change  Column Row Layer    Maximum-Flux-Residual          L2-NORM 
          0                 1          11            59   85     2      -0.4019131877E+01      70   19    1        -0.1055259420E+06      0.6528796521E+06
          0                 2          10            65    6     2      -0.3177510016E+01      69   21    1        -0.1318626712E+05      0.6754409419E+05
          0                 3           6            69   21     1       0.2273186638E+00      69   21    1         0.1237908957E+04      0.1586630432E+04
          0                 4           3            65    6     2       0.6553000770E-02      69   21    1         0.6876823217E+01      0.9954210679E+01

    ------------------------------------------------
       NWT REQUIRED            4 OUTER ITERATIONS 
       AND A TOTAL OF         30 INNER ITERATIONS.
    ------------------------------------------------

 NO OUTPUT CONTROL FOR STRESS PERIOD   23   TIME STEP    3
 
 SOLVING FOR HEAD 
                                                   Max.-Head-Change                         Max.-Flux-Residual
  Residual-Control   Outer-Iter.   Inner-Iter.     Column Row Layer    Maximum-Head-Change  Column Row Layer    Maximum-Flux-Residual          L2-NORM 
          0                 1          11            65    6     2      -0.4215214395E+02      70   19    1        -0.9451598650E+05      0.6174537922E+06
          0                 2          10            65    3     2      -0.5537062014E+01      59   94    3         0.2175798095E+05      0.6724845755E+05
          0                 3           6            65    3     2       0.1817475717E+00      13    9    1         0.9586283877E+03      0.1110383050E+04
          0                 4           3            65    3     2       0.1052778973E-01      14    8    1        -0.5339260727E+01      0.8495925053E+01
          0                 5           2            65    3     2       0.6088927232E-03      14    8    1        -0.3698293269E+00      0.5651745559E+00

    ------------------------------------------------
       NWT REQUIRED            5 OUTER ITERATIONS 
       AND A TOTAL OF         32 INNER ITERATIONS.
    ------------------------------------------------

 NO OUTPUT CONTROL FOR STRESS PERIOD   23   TIME STEP    4
 
 SOLVING FOR HEAD 
                                                   Max.-Head-Change                         Max.-Flux-Residual
  Residual-Control   Outer-Iter.   Inner-Iter.     Column Row Layer    Maximum-Head-Change  Column Row Layer    Maximum-Flux-Residual          L2-NORM 
          0                 1          11            65    3     2      -0.3628647134E+02      70   19    1        -0.8502866384E+05      0.5951363031E+06
          0                 2          10            65    3     2       0.4153710361E+01      58  103    2         0.1223904288E+05      0.6201169834E+05
          0                 3           6            65    3     2       0.2080311094E+00      34   24    1         0.9217967461E+03      0.1206679845E+04
          0                 4           3            65    3     2       0.1041528552E-01      14    8    1        -0.5598923594E+01      0.8084989807E+01
          0                 5           2            65    3     2       0.5205582326E-03      14    8    1        -0.3996861279E+00      0.5216592255E+00

    ------------------------------------------------
       NWT REQUIRED            5 OUTER ITERATIONS 
       AND A TOTAL OF         32 INNER ITERATIONS.
    ------------------------------------------------

 NO OUTPUT CONTROL FOR STRESS PERIOD   23   TIME STEP    5
 
 SOLVING FOR HEAD 
                                                   Max.-Head-Change                         Max.-Flux-Residual
  Residual-Control   Outer-Iter.   Inner-Iter.     Column Row Layer    Maximum-Head-Change  Column Row Layer    Maximum-Flux-Residual          L2-NORM 
          0                 1          11            51  103     3       0.3368020466E+01      70   19    1        -0.7680052223E+05      0.5774980703E+06
          0                 2          10            65    5     2      -0.2929812143E+02      65    5    2        -0.1405727678E+05      0.6188856079E+05
          0                 3           6            65    5     2       0.2604547205E+01      65    5    2         0.1530920142E+04      0.2010955933E+04
          0                 4           3            65    5     2       0.1132849544E+00      60   87    1        -0.7085624096E+02      0.1217204010E+03
          0                 5           2            65    5     2       0.4897273428E-02      60   87    1        -0.6370097488E+01      0.9310766369E+01

    ------------------------------------------------
       NWT REQUIRED            5 OUTER ITERATIONS 
       AND A TOTAL OF         32 INNER ITERATIONS.
    ------------------------------------------------

 NO OUTPUT CONTROL FOR STRESS PERIOD   23   TIME STEP    6
 
 SOLVING FOR HEAD 
                                                   Max.-Head-Change                         Max.-Flux-Residual
  Residual-Control   Outer-Iter.   Inner-Iter.     Column Row Layer    Maximum-Head-Change  Column Row Layer    Maximum-Flux-Residual          L2-NORM 
          0                 1          11            65    5     2      -0.1422936396E+02      51  103    3         0.7025797751E+05      0.5641005361E+06
          0                 2          10            66    4     2      -0.5181251135E+01      70   19    2         0.1349070880E+05      0.6166617716E+05
          0                 3           6            66    4     2       0.1726717882E+00      66   25    1         0.1211548944E+04      0.1885040801E+04
          0                 4           3            66    4     2       0.1001469554E-01      66    4    2         0.4374631434E+01      0.7237484919E+01
          0                 5           2            66    4     2       0.5798477861E-03      14    8    1        -0.3117252886E+00      0.4292184661E+00

    ------------------------------------------------
       NWT REQUIRED            5 OUTER ITERATIONS 
       AND A TOTAL OF         32 INNER ITERATIONS.
    ------------------------------------------------

 NO OUTPUT CONTROL FOR STRESS PERIOD   23   TIME STEP    7
 
 SOLVING FOR HEAD 
                                                   Max.-Head-Change                         Max.-Flux-Residual
  Residual-Control   Outer-Iter.   Inner-Iter.     Column Row Layer    Maximum-Head-Change  Column Row Layer    Maximum-Flux-Residual          L2-NORM 
          0                 1          11            66    4     2      -0.5752467129E+01      51  103    3         0.6840823229E+05      0.5540503864E+06
          0                 2          10            18   33     2      -0.7419087686E+00      46   30    2         0.7746631810E+04      0.5710076871E+05
          0                 3           8            18   33     2       0.1561444511E+00      18   33    2         0.1658552755E+04      0.2216638874E+04
          0                 4           5            19   33     2      -0.1759596132E-02      19   33    2        -0.6472130372E+02      0.9002006699E+02

    ------------------------------------------------
       NWT REQUIRED            4 OUTER ITERATIONS 
       AND A TOTAL OF         34 INNER ITERATIONS.
    ------------------------------------------------

 NO OUTPUT CONTROL FOR STRESS PERIOD   23   TIME STEP    8
 
 SOLVING FOR HEAD 
                                                   Max.-Head-Change                         Max.-Flux-Residual
  Residual-Control   Outer-Iter.   Inner-Iter.     Column Row Layer    Maximum-Head-Change  Column Row Layer    Maximum-Flux-Residual          L2-NORM 
          0                 1          11            51  103     3       0.3108486920E+01      51  103    3         0.6660589451E+05      0.5454954087E+06
          0                 2          10            59   94     2      -0.2292334273E+01      59   94    2        -0.1829837448E+05      0.6027824700E+05
          0                 3           6            59   94     2       0.1933038303E+00      59   94    2         0.1764998310E+04      0.2116446719E+04
          0                 4           4            13    2     1      -0.1586676454E-02      13    2    1        -0.8613532378E+02      0.8681428702E+02

    ------------------------------------------------
       NWT REQUIRED            4 OUTER ITERATIONS 
       AND A TOTAL OF         31 INNER ITERATIONS.
    ------------------------------------------------

 NO OUTPUT CONTROL FOR STRESS PERIOD   23   TIME STEP    9
 
 SOLVING FOR HEAD 
                                                   Max.-Head-Change                         Max.-Flux-Residual
  Residual-Control   Outer-Iter.   Inner-Iter.     Column Row Layer    Maximum-Head-Change  Column Row Layer    Maximum-Flux-Residual          L2-NORM 
          0                 1          11            73   14     1      -0.4742670861E+01      51  103    3         0.6485212269E+05      0.5387198471E+06
          0                 2          10            58   98     2      -0.1349624296E+01      22   50    3         0.8930421991E+04      0.5700996352E+05
          0                 3           8            58   98     2       0.1169515513E+00      22   50    2        -0.4241257961E+04      0.4831173591E+04
          0                 4           6            22   50     2      -0.7676471437E-02      22   50    2        -0.3821932665E+03      0.4170307583E+03

    ------------------------------------------------
       NWT REQUIRED            4 OUTER ITERATIONS 
       AND A TOTAL OF         35 INNER ITERATIONS.
    ------------------------------------------------

 NO OUTPUT CONTROL FOR STRESS PERIOD   23   TIME STEP   10
 
 SOLVING FOR HEAD 
                                                   Max.-Head-Change                         Max.-Flux-Residual
  Residual-Control   Outer-Iter.   Inner-Iter.     Column Row Layer    Maximum-Head-Change  Column Row Layer    Maximum-Flux-Residual          L2-NORM 
          0                 1          11            59   85     1      -0.5161339017E+01      51  103    3         0.6314768054E+05      0.5333838883E+06
          0                 2          10            20   43     2      -0.1239185518E+01      60   85    1        -0.1841630521E+05      0.6410330542E+05
          0                 3           7            60   86     1      -0.1581788512E+00      60   86    1        -0.9406096916E+04      0.1006549082E+05
          0                 4           5            60   86     1      -0.1430598744E-01      60   86    1        -0.8497700842E+03      0.8772362118E+03
          0                 5           4            60   86     1      -0.1286789593E-02      60   86    1        -0.7641771746E+02      0.7887397861E+02

    ------------------------------------------------
       NWT REQUIRED            5 OUTER ITERATIONS 
       AND A TOTAL OF         37 INNER ITERATIONS.
    ------------------------------------------------

 NO OUTPUT CONTROL FOR STRESS PERIOD   23   TIME STEP   11
 
 SOLVING FOR HEAD 
                                                   Max.-Head-Change                         Max.-Flux-Residual
  Residual-Control   Outer-Iter.   Inner-Iter.     Column Row Layer    Maximum-Head-Change  Column Row Layer    Maximum-Flux-Residual          L2-NORM 
          0                 1          11            51  103     3       0.2870235930E+01      51  103    3         0.6149302567E+05      0.5292444287E+06
          0                 2          10            22   47     2      -0.7952381251E+00      58   87    3         0.1621485592E+05      0.6199294789E+05
          0                 3           7            22   47     2       0.7014460995E-01      60   86    1         0.1333452468E+04      0.2390099216E+04
          0                 4           5            12   12     1      -0.8872024477E-03      12   12    1        -0.1026414098E+03      0.1028737478E+03

    ------------------------------------------------
       NWT REQUIRED            4 OUTER ITERATIONS 
       AND A TOTAL OF         33 INNER ITERATIONS.
    ------------------------------------------------

 OUTPUT CONTROL FOR STRESS PERIOD   23   TIME STEP   12
    SAVE BUDGET
 UBDSV1 SAVING "         STORAGE" ON UNIT  39 AT TIME STEP 12, STRESS PERIOD  23
 UBDSV2 SAVING "   CONSTANT HEAD" ON UNIT  39 AT TIME STEP 12, STRESS PERIOD  23
 UBDSV1 SAVING "FLOW RIGHT FACE " ON UNIT  39 AT TIME STEP 12, STRESS PERIOD  23
 UBDSV1 SAVING "FLOW FRONT FACE " ON UNIT  39 AT TIME STEP 12, STRESS PERIOD  23
 UBDSV1 SAVING "FLOW LOWER FACE " ON UNIT  39 AT TIME STEP 12, STRESS PERIOD  23
 UBDSV4 SAVING "           WELLS" ON UNIT  39 AT TIME STEP 12, STRESS PERIOD  23
 UBDSV3 SAVING "              ET" ON UNIT  39 AT TIME STEP 12, STRESS PERIOD  23
 UBDSV3 SAVING "        RECHARGE" ON UNIT  39 AT TIME STEP 12, STRESS PERIOD  23
1
  VOLUMETRIC BUDGET FOR ENTIRE MODEL AT END OF TIME STEP   12, STRESS PERIOD  23
  ------------------------------------------------------------------------------

     CUMULATIVE VOLUMES      L**3       RATES FOR THIS TIME STEP      L**3/T
     ------------------                 ------------------------

           IN:                                      IN:
           ---                                      ---
             STORAGE =125039894528.0000               STORAGE =    27454902.0000
       CONSTANT HEAD = 10935334912.0000         CONSTANT HEAD =     1377890.1250
               WELLS = 10296600576.0000                 WELLS =     1225642.0000
                  ET =           0.0000                    ET =           0.0000
            RECHARGE =122482089984.0000              RECHARGE =    15504236.0000

            TOTAL IN =268753928192.0000              TOTAL IN =    45562672.0000

          OUT:                                     OUT:
          ----                                     ----
             STORAGE = 13487166464.0000               STORAGE =      903589.1250
       CONSTANT HEAD = 30426865664.0000         CONSTANT HEAD =     3604694.5000
               WELLS =216418418688.0000                 WELLS =    40509004.0000
                  ET =  8421576704.0000                    ET =      545394.3125
            RECHARGE =           0.0000              RECHARGE =           0.0000

           TOTAL OUT =268754010112.0000             TOTAL OUT =    45562684.0000

            IN - OUT =      -81920.0000              IN - OUT =         -12.0000

 PERCENT DISCREPANCY =          -0.00     PERCENT DISCREPANCY =          -0.00






         TIME SUMMARY AT END OF TIME STEP   12 IN STRESS PERIOD   23
                    SECONDS     MINUTES      HOURS       DAYS        YEARS
                    -----------------------------------------------------------
   TIME STEP LENGTH 2.62800E+06  43800.      730.00      30.417     8.32763E-02
 STRESS PERIOD TIME 3.15360E+07 5.25600E+05  8760.0      365.00     0.99932    
         TOTAL TIME 7.25846E+08 1.20974E+07 2.01624E+05  8401.0      23.001    
1
1
                            STRESS PERIOD NO.   24, LENGTH =   365.0000    
                            -----------------------------------------------

                              NUMBER OF TIME STEPS =    12

                               MULTIPLIER FOR DELT =     1.000

                            INITIAL TIME STEP SIZE =   30.41667    

   1937 WELLS

 REUSING SURF FROM LAST STRESS PERIOD

 REUSING EVTR FROM LAST STRESS PERIOD

 REUSING EXDP FROM LAST STRESS PERIOD



                           RECHARGE
 READING ON UNIT   16 WITH FORMAT: (15F5.0)            


     63 TIME-VARIANT SPECIFIED-HEAD CELLS
 
 SOLVING FOR HEAD 
                                                   Max.-Head-Change                         Max.-Flux-Residual
  Residual-Control   Outer-Iter.   Inner-Iter.     Column Row Layer    Maximum-Head-Change  Column Row Layer    Maximum-Flux-Residual          L2-NORM 
          0                 1          11            92   77     2       0.8782068451E+02      58   66    2        -0.4600079214E+06      0.9188757615E+06
          0                 2          10            92   77     2       0.3241823221E+02      58   66    2         0.4600079284E+05      0.9844644709E+05
          0                 3           7            92   77     2      -0.2259699294E+02      92   77    2        -0.6807152518E+06      0.6814981099E+06
          0                 4           5            91   77     2       0.5723559814E+01      92   77    2        -0.7136583966E+04      0.8675600513E+04
          0                 5           4            91   77     2       0.9005600858E+00      91   77    2         0.3983412303E+03      0.5324885350E+03
          0                 6           3            91   77     2       0.1379229319E+00      91   77    2         0.6095372095E+02      0.6885718752E+02
          0                 7           2            91   77     2       0.2112450644E-01      91   77    2         0.9335060533E+01      0.9840302665E+01
          0                 8           2            91   77     2       0.3233835666E-02      91   77    2         0.1428912707E+01      0.1482278716E+01

    ------------------------------------------------
       NWT REQUIRED            8 OUTER ITERATIONS 
       AND A TOTAL OF         44 INNER ITERATIONS.
    ------------------------------------------------

 NO OUTPUT CONTROL FOR STRESS PERIOD   24   TIME STEP    1
 
 SOLVING FOR HEAD 
                                                   Max.-Head-Change                         Max.-Flux-Residual
  Residual-Control   Outer-Iter.   Inner-Iter.     Column Row Layer    Maximum-Head-Change  Column Row Layer    Maximum-Flux-Residual          L2-NORM 
          0                 1          11            58   66     1      -0.4916234312E+01      58   66    1        -0.2317112659E+06      0.6245819582E+06
          0                 2          10            58   87     2      -0.7406403138E+00      58   66    1         0.2133522936E+05      0.6781695021E+05
          0                 3           6            58   87     2       0.6532164753E-01      22   23    1         0.1407784463E+04      0.2682625910E+04
          0                 4           4            31   22     1      -0.9702929523E-03      31   22    1        -0.7664509247E+02      0.7975396160E+02

    ------------------------------------------------
       NWT REQUIRED            4 OUTER ITERATIONS 
       AND A TOTAL OF         31 INNER ITERATIONS.
    ------------------------------------------------

 NO OUTPUT CONTROL FOR STRESS PERIOD   24   TIME STEP    2
 
 SOLVING FOR HEAD 
                                                   Max.-Head-Change                         Max.-Flux-Residual
  Residual-Control   Outer-Iter.   Inner-Iter.     Column Row Layer    Maximum-Head-Change  Column Row Layer    Maximum-Flux-Residual          L2-NORM 
          0                 1          11            58   66     1      -0.3311638571E+01      58   66    1        -0.1442556434E+06      0.5481434492E+06
          0                 2          10            31   22     1      -0.3996039493E+00      58   66    1         0.1360909857E+05      0.6109372247E+05
          0                 3           7            26   39     1      -0.6590365840E-01      19   19    1        -0.5019189066E+04      0.6500048341E+04
          0                 4           6            26   39     1      -0.5939636515E-02      19   19    1        -0.4526959937E+03      0.5634114554E+03

    ------------------------------------------------
       NWT REQUIRED            4 OUTER ITERATIONS 
       AND A TOTAL OF         34 INNER ITERATIONS.
    ------------------------------------------------

 NO OUTPUT CONTROL FOR STRESS PERIOD   24   TIME STEP    3
 
 SOLVING FOR HEAD 
                                                   Max.-Head-Change                         Max.-Flux-Residual
  Residual-Control   Outer-Iter.   Inner-Iter.     Column Row Layer    Maximum-Head-Change  Column Row Layer    Maximum-Flux-Residual          L2-NORM 
          0                 1          11            58   66     1      -0.2394045857E+01      58   66    1        -0.9697630206E+05      0.5143940264E+06
          0                 2          10            26   39     1      -0.3703594266E+00      26   31    2         0.1112687323E+05      0.5468221449E+05
          0                 3           6            26   39     1       0.3320469518E-01      19   19    1         0.9063220426E+03      0.1591857892E+04
          0                 4           3            91   77     2      -0.1386061788E-03      20   71    2        -0.4506367646E+01      0.4731232498E+01

    ------------------------------------------------
       NWT REQUIRED            4 OUTER ITERATIONS 
       AND A TOTAL OF         30 INNER ITERATIONS.
    ------------------------------------------------

 NO OUTPUT CONTROL FOR STRESS PERIOD   24   TIME STEP    4
 
 SOLVING FOR HEAD 
                                                   Max.-Head-Change                         Max.-Flux-Residual
  Residual-Control   Outer-Iter.   Inner-Iter.     Column Row Layer    Maximum-Head-Change  Column Row Layer    Maximum-Flux-Residual          L2-NORM 
          0                 1          11            51  103     3       0.2161348719E+01      58   66    1        -0.7007668401E+05      0.4963803576E+06
          0                 2          10            26   31     1      -0.4831483149E+00      60   84    2         0.1762906693E+05      0.5684994383E+05
          0                 3           6            26   31     1       0.4287893215E-01      26   31    1         0.8768140907E+03      0.1006432260E+04
          0                 4           3            26   31     1       0.2694082965E-03      26   31    1         0.4857509762E+01      0.6096810682E+01

    ------------------------------------------------
       NWT REQUIRED            4 OUTER ITERATIONS 
       AND A TOTAL OF         30 INNER ITERATIONS.
    ------------------------------------------------

 NO OUTPUT CONTROL FOR STRESS PERIOD   24   TIME STEP    5
 
 SOLVING FOR HEAD 
                                                   Max.-Head-Change                         Max.-Flux-Residual
  Residual-Control   Outer-Iter.   Inner-Iter.     Column Row Layer    Maximum-Head-Change  Column Row Layer    Maximum-Flux-Residual          L2-NORM 
          0                 1          11            51  103     3       0.2111064944E+01      58   66    1        -0.5389653256E+05      0.4850308599E+06
          0                 2          10            18   38     2      -0.3196642857E+01      18   38    2        -0.1643939398E+05      0.5543385631E+05
          0                 3           7            18   38     2       0.2764401856E+00      18   38    2         0.1653174887E+04      0.2435020263E+04
          0                 4           5            18   38     2       0.3580746746E-02      18   38    2         0.1992054719E+02      0.2507790922E+02

    ------------------------------------------------
       NWT REQUIRED            4 OUTER ITERATIONS 
       AND A TOTAL OF         33 INNER ITERATIONS.
    ------------------------------------------------

 NO OUTPUT CONTROL FOR STRESS PERIOD   24   TIME STEP    6
 
 SOLVING FOR HEAD 
                                                   Max.-Head-Change                         Max.-Flux-Residual
  Residual-Control   Outer-Iter.   Inner-Iter.     Column Row Layer    Maximum-Head-Change  Column Row Layer    Maximum-Flux-Residual          L2-NORM 
          0                 1          11            51  103     3       0.2062527789E+01      51  103    3         0.4405715170E+05      0.4774214670E+06
          0                 2          10            26   15     1      -0.2026613527E+00      26   15    1        -0.4655123508E+04      0.4806124045E+05
          0                 3           6            26   15     1       0.1818072207E-01      26   15    1         0.4575408629E+03      0.6151748804E+03
          0                 4           3            90   76     2      -0.1396491117E-03      77   46    2        -0.2946982917E+03      0.2947007080E+03

    ------------------------------------------------
       NWT REQUIRED            4 OUTER ITERATIONS 
       AND A TOTAL OF         30 INNER ITERATIONS.
    ------------------------------------------------

 NO OUTPUT CONTROL FOR STRESS PERIOD   24   TIME STEP    7
 
 SOLVING FOR HEAD 
                                                   Max.-Head-Change                         Max.-Flux-Residual
  Residual-Control   Outer-Iter.   Inner-Iter.     Column Row Layer    Maximum-Head-Change  Column Row Layer    Maximum-Flux-Residual          L2-NORM 
          0                 1          11            33   33     1      -0.2128548688E+01      51  103    3         0.4304524890E+05      0.4723496786E+06
          0                 2          10            88   67     1      -0.6572915578E+00      88   67    1        -0.2671556925E+05      0.5532951417E+05
          0                 3           6            77   46     2      -0.4605738036E-01      22   48    2         0.3937570736E+03      0.5380799151E+03
          0                 4           3            87   67     1      -0.1355204319E-03      22   48    2         0.6703484617E+00      0.1095003855E+01

    ------------------------------------------------
       NWT REQUIRED            4 OUTER ITERATIONS 
       AND A TOTAL OF         30 INNER ITERATIONS.
    ------------------------------------------------

 NO OUTPUT CONTROL FOR STRESS PERIOD   24   TIME STEP    8
 
 SOLVING FOR HEAD 
                                                   Max.-Head-Change                         Max.-Flux-Residual
  Residual-Control   Outer-Iter.   Inner-Iter.     Column Row Layer    Maximum-Head-Change  Column Row Layer    Maximum-Flux-Residual          L2-NORM 
          0                 1          11            51  103     3       0.1970437875E+01      51  103    3         0.4206839055E+05      0.4681270143E+06
          0                 2          10            51  103     3      -0.1792590411E+00      30   21    2         0.1325687922E+05      0.5065246793E+05
          0                 3           7            30   21     1      -0.5336953144E-01      30   21    1        -0.4265715794E+04      0.4298718583E+04
          0                 4           6            30   21     1      -0.4808515308E-02      30   21    1        -0.3842257046E+03      0.3844887822E+03

    ------------------------------------------------
       NWT REQUIRED            4 OUTER ITERATIONS 
       AND A TOTAL OF         34 INNER ITERATIONS.
    ------------------------------------------------

 NO OUTPUT CONTROL FOR STRESS PERIOD   24   TIME STEP    9
 
 SOLVING FOR HEAD 
                                                   Max.-Head-Change                         Max.-Flux-Residual
  Residual-Control   Outer-Iter.   Inner-Iter.     Column Row Layer    Maximum-Head-Change  Column Row Layer    Maximum-Flux-Residual          L2-NORM 
          0                 1          11            51  103     3       0.1926757965E+01      51  103    3         0.4112524567E+05      0.4640141568E+06
          0                 2          10            58   86     2      -0.1567251368E+01      58   86    2        -0.1147840280E+05      0.5178342848E+05
          0                 3           6            58   86     2       0.1305805472E+00      58   86    2         0.1103834129E+04      0.2292749615E+04
          0                 4           3            58   86     1       0.1084207167E-02      58   86    1         0.3962344423E+01      0.6834099006E+01

    ------------------------------------------------
       NWT REQUIRED            4 OUTER ITERATIONS 
       AND A TOTAL OF         30 INNER ITERATIONS.
    ------------------------------------------------

 NO OUTPUT CONTROL FOR STRESS PERIOD   24   TIME STEP   10
 
 SOLVING FOR HEAD 
                                                   Max.-Head-Change                         Max.-Flux-Residual
  Residual-Control   Outer-Iter.   Inner-Iter.     Column Row Layer    Maximum-Head-Change  Column Row Layer    Maximum-Flux-Residual          L2-NORM 
          0                 1          11            51  103     3       0.1884570618E+01      51  103    3         0.4021448599E+05      0.4615838648E+06
          0                 2          10            27   32     1      -0.5391804674E+00      27   32    1        -0.8883292383E+04      0.4933841875E+05
          0                 3           7            27   32     1       0.5503312807E-01      26   36    1        -0.2726422101E+04      0.2972985090E+04
          0                 4           5            26   36     1      -0.4311695292E-02      26   36    1        -0.2456033200E+03      0.2458709462E+03

    ------------------------------------------------
       NWT REQUIRED            4 OUTER ITERATIONS 
       AND A TOTAL OF         33 INNER ITERATIONS.
    ------------------------------------------------

 NO OUTPUT CONTROL FOR STRESS PERIOD   24   TIME STEP   11
 
 SOLVING FOR HEAD 
                                                   Max.-Head-Change                         Max.-Flux-Residual
  Residual-Control   Outer-Iter.   Inner-Iter.     Column Row Layer    Maximum-Head-Change  Column Row Layer    Maximum-Flux-Residual          L2-NORM 
          0                 1          11            51  103     3       0.1843814740E+01      51  103    3         0.3933481679E+05      0.4593135865E+06
          0                 2          10            72   15     1      -0.2463673397E+01      72   15    1        -0.1346991166E+05      0.5392836229E+05
          0                 3           7            72   15     1       0.2123579257E+00      26   30    1        -0.2396156684E+04      0.2960100842E+04
          0                 4           5            26   30     1      -0.4181968914E-02      26   30    1        -0.2158766528E+03      0.2459288464E+03

    ------------------------------------------------
       NWT REQUIRED            4 OUTER ITERATIONS 
       AND A TOTAL OF         33 INNER ITERATIONS.
    ------------------------------------------------

 OUTPUT CONTROL FOR STRESS PERIOD   24   TIME STEP   12
    SAVE BUDGET
 UBDSV1 SAVING "         STORAGE" ON UNIT  39 AT TIME STEP 12, STRESS PERIOD  24
 UBDSV2 SAVING "   CONSTANT HEAD" ON UNIT  39 AT TIME STEP 12, STRESS PERIOD  24
 UBDSV1 SAVING "FLOW RIGHT FACE " ON UNIT  39 AT TIME STEP 12, STRESS PERIOD  24
 UBDSV1 SAVING "FLOW FRONT FACE " ON UNIT  39 AT TIME STEP 12, STRESS PERIOD  24
 UBDSV1 SAVING "FLOW LOWER FACE " ON UNIT  39 AT TIME STEP 12, STRESS PERIOD  24
 UBDSV4 SAVING "           WELLS" ON UNIT  39 AT TIME STEP 12, STRESS PERIOD  24
 UBDSV3 SAVING "              ET" ON UNIT  39 AT TIME STEP 12, STRESS PERIOD  24
 UBDSV3 SAVING "        RECHARGE" ON UNIT  39 AT TIME STEP 12, STRESS PERIOD  24

 INTERPOLATION FOR HEAD OBS# 7916, ID 1427-25-27   CHANGED BECAUSE AT LEAST ONE
 NEIGHBORING CELL REQUIRED FOR INTERPOLATION IS DRY OR INACTIVE (OBS2BAS7SE)
1
  VOLUMETRIC BUDGET FOR ENTIRE MODEL AT END OF TIME STEP   12, STRESS PERIOD  24
  ------------------------------------------------------------------------------

     CUMULATIVE VOLUMES      L**3       RATES FOR THIS TIME STEP      L**3/T
     ------------------                 ------------------------

           IN:                                      IN:
           ---                                      ---
             STORAGE =133775368192.0000               STORAGE =    23433864.0000
       CONSTANT HEAD = 11449897984.0000         CONSTANT HEAD =     1427352.6250
               WELLS = 10743957504.0000                 WELLS =     1225642.0000
                  ET =           0.0000                    ET =           0.0000
            RECHARGE =129683841024.0000              RECHARGE =    19730916.0000

            TOTAL IN =285653073920.0000              TOTAL IN =    45817776.0000

          OUT:                                     OUT:
          ----                                     ----
             STORAGE = 14176307200.0000               STORAGE =     1341921.1250
       CONSTANT HEAD = 31768854528.0000         CONSTANT HEAD =     3688785.7500
               WELLS =231036026880.0000                 WELLS =    40048184.0000
                  ET =  8672047104.0000                    ET =      738792.0000
            RECHARGE =           0.0000              RECHARGE =           0.0000

           TOTAL OUT =285653237760.0000             TOTAL OUT =    45817680.0000

            IN - OUT =     -163840.0000              IN - OUT =          96.0000

 PERCENT DISCREPANCY =          -0.00     PERCENT DISCREPANCY =           0.00






         TIME SUMMARY AT END OF TIME STEP   12 IN STRESS PERIOD   24
                    SECONDS     MINUTES      HOURS       DAYS        YEARS
                    -----------------------------------------------------------
   TIME STEP LENGTH 2.62800E+06  43800.      730.00      30.417     8.32763E-02
 STRESS PERIOD TIME 3.15360E+07 5.25600E+05  8760.0      365.00     0.99932    
         TOTAL TIME 7.57382E+08 1.26230E+07 2.10384E+05  8766.0      24.000    
1
1
                            STRESS PERIOD NO.   25, LENGTH =   366.0000    
                            -----------------------------------------------

                              NUMBER OF TIME STEPS =    12

                               MULTIPLIER FOR DELT =     1.000

                            INITIAL TIME STEP SIZE =   30.50000    

   1959 WELLS

 REUSING SURF FROM LAST STRESS PERIOD

 REUSING EVTR FROM LAST STRESS PERIOD

 REUSING EXDP FROM LAST STRESS PERIOD



                           RECHARGE
 READING ON UNIT   16 WITH FORMAT: (15F5.0)            


     63 TIME-VARIANT SPECIFIED-HEAD CELLS
 
 SOLVING FOR HEAD 
                                                   Max.-Head-Change                         Max.-Flux-Residual
  Residual-Control   Outer-Iter.   Inner-Iter.     Column Row Layer    Maximum-Head-Change  Column Row Layer    Maximum-Flux-Residual          L2-NORM 
          0                 1          11            65    2     2       0.9176076230E+02      58   66    2         0.4599802235E+06      0.1067198420E+07
          0                 2          10            72   15     1      -0.1712955392E+02      72   15    1        -0.5792721940E+06      0.6933337444E+06
          0                 3           7            65    6     2      -0.8622333170E+00      72   15    1        -0.2713034490E+04      0.4417699583E+04
          0                 4           4            66    5     2       0.8774250412E-01      78   65    2        -0.1071234550E+04      0.1080110372E+04
          0                 5           3            66    5     2       0.1319884047E-01      78   65    2        -0.1070488055E+04      0.1070578813E+04
          0                 6           3            66    5     2       0.1984332639E-02      78   65    2        -0.1069712230E+04      0.1069715233E+04
          0                 7           3            66    5     2       0.2981454260E-03      78   65    2        -0.1068904495E+04      0.1068906464E+04
          0                 8           3            66    5     2       0.4476848365E-04      78   65    2        -0.1068064685E+04      0.1068066637E+04
          0                 9           3            78   65     2      -0.3506632661E-04      78   65    2        -0.1067192876E+04      0.1067194826E+04
          0                10           3            78   65     2      -0.3503565850E-04      78   65    2        -0.1066289172E+04      0.1066291121E+04
                                                   Max.-Head-Change                         Max.-Flux-Residual
  Residual-Control   Outer-Iter.   Inner-Iter.     Column Row Layer    Maximum-Head-Change  Column Row Layer    Maximum-Flux-Residual          L2-NORM 
          0                11           3            78   65     2      -0.3500394892E-04      78   65    2        -0.1065353685E+04      0.1065355632E+04
          0                12           3            78   65     2      -0.3497120188E-04      78   65    2        -0.1064386529E+04      0.1064388475E+04
          0                13           3            78   65     2      -0.3493741988E-04      78   65    2        -0.1063387823E+04      0.1063389767E+04
          0                14           3            78   65     2      -0.3490260892E-04      78   65    2        -0.1062357689E+04      0.1062359631E+04
          0                15           3            78   65     2      -0.3486677101E-04      78   65    2        -0.1061296253E+04      0.1061298192E+04
          0                16           3            78   65     2      -0.3482991415E-04      78   65    2        -0.1060203643E+04      0.1060205581E+04
          0                17           3            78   65     2      -0.3479203883E-04      78   65    2        -0.1059079993E+04      0.1059081929E+04
          0                18           3            78   65     2      -0.3475315257E-04      78   65    2        -0.1057925439E+04      0.1057927372E+04
          0                19           3            78   65     2      -0.3471325836E-04      78   65    2        -0.1056740121E+04      0.1056742052E+04
          0                20           3            78   65     2      -0.3467236320E-04      78   65    2        -0.1055524182E+04      0.1055526111E+04
                                                   Max.-Head-Change                         Max.-Flux-Residual
  Residual-Control   Outer-Iter.   Inner-Iter.     Column Row Layer    Maximum-Head-Change  Column Row Layer    Maximum-Flux-Residual          L2-NORM 
          0                21           3            78   65     2      -0.3463046810E-04      78   65    2        -0.1054277769E+04      0.1054279696E+04
          0                22           3            78   65     2      -0.3458758156E-04      78   65    2        -0.1053001032E+04      0.1053002957E+04
          0                23           3            78   65     2      -0.3454370708E-04      78   65    2        -0.1051694124E+04      0.1051696047E+04
          0                24           3            78   65     2      -0.3449885067E-04      78   65    2        -0.1050357203E+04      0.1050359123E+04
          0                25           3            78   65     2      -0.3445301782E-04      78   65    2        -0.1048990427E+04      0.1048992345E+04
          0                26           3            78   65     2      -0.3440621354E-04      78   65    2        -0.1047593961E+04      0.1047595876E+04
          0                27           3            78   65     2      -0.3435844233E-04      78   65    2        -0.1046167971E+04      0.1046169883E+04
          0                28           5            78   65     2      -0.2709724573E-01      78   65    2        -0.1044715706E+04      0.1044717616E+04
          0                29           4            78   65     2       0.2463195564E-02      78   65    2         0.1209200156E+03      0.1254342385E+03

    ------------------------------------------------
       NWT REQUIRED           29 OUTER ITERATIONS 
       AND A TOTAL OF        110 INNER ITERATIONS.
    ------------------------------------------------

 NO OUTPUT CONTROL FOR STRESS PERIOD   25   TIME STEP    1
 
 SOLVING FOR HEAD 
                                                   Max.-Head-Change                         Max.-Flux-Residual
  Residual-Control   Outer-Iter.   Inner-Iter.     Column Row Layer    Maximum-Head-Change  Column Row Layer    Maximum-Flux-Residual          L2-NORM 
          0                 1          11            59   85     3       0.4991713064E+01      58   66    1         0.2133132112E+06      0.6930063354E+06
          0                 2          10            20   42     2      -0.2124228386E+01      70   17    1        -0.2468079066E+05      0.7589394566E+05
          0                 3           7            20   42     2       0.4181561774E+00      15    2    1        -0.6955070217E+04      0.7139067771E+04
          0                 4           5            15    2     1      -0.1141264163E-01      15    2    1        -0.6270310650E+03      0.6297442086E+03
          0                 5           3            15    2     1      -0.1026331760E-02      15    2    1        -0.5637884684E+02      0.5660394487E+02

    ------------------------------------------------
       NWT REQUIRED            5 OUTER ITERATIONS 
       AND A TOTAL OF         36 INNER ITERATIONS.
    ------------------------------------------------

 NO OUTPUT CONTROL FOR STRESS PERIOD   25   TIME STEP    2
 
 SOLVING FOR HEAD 
                                                   Max.-Head-Change                         Max.-Flux-Residual
  Residual-Control   Outer-Iter.   Inner-Iter.     Column Row Layer    Maximum-Head-Change  Column Row Layer    Maximum-Flux-Residual          L2-NORM 
          0                 1          11            71   16     1       0.3039019198E+01      58   66    1         0.1262142799E+06      0.5912313123E+06
          0                 2          10            66   25     1      -0.5230212177E+00      66   25    1        -0.2422182095E+05      0.6488873995E+05
          0                 3           6            15    2     1       0.1337106747E-01      15    2    1         0.3380331678E+03      0.3638465790E+03
          0                 4           3            91   77     2      -0.2117638067E-03      62   46    1        -0.5243617967E+01      0.5335503618E+01

    ------------------------------------------------
       NWT REQUIRED            4 OUTER ITERATIONS 
       AND A TOTAL OF         30 INNER ITERATIONS.
    ------------------------------------------------

 NO OUTPUT CONTROL FOR STRESS PERIOD   25   TIME STEP    3
 
 SOLVING FOR HEAD 
                                                   Max.-Head-Change                         Max.-Flux-Residual
  Residual-Control   Outer-Iter.   Inner-Iter.     Column Row Layer    Maximum-Head-Change  Column Row Layer    Maximum-Flux-Residual          L2-NORM 
          0                 1          11            71   16     1       0.2856820029E+01      58   66    1         0.7691378046E+05      0.5422898975E+06
          0                 2          10            21   44     2      -0.6624402619E+00      58   66    1        -0.7908853368E+04      0.5583520840E+05
          0                 3           6            21   44     2       0.5706720138E-01      57  105    1        -0.1509356050E+04      0.1815556719E+04
          0                 4           4            57  105     1      -0.2495816547E-02      57  105    1        -0.1358863368E+03      0.1360741026E+03

    ------------------------------------------------
       NWT REQUIRED            4 OUTER ITERATIONS 
       AND A TOTAL OF         31 INNER ITERATIONS.
    ------------------------------------------------

 NO OUTPUT CONTROL FOR STRESS PERIOD   25   TIME STEP    4
 
 SOLVING FOR HEAD 
                                                   Max.-Head-Change                         Max.-Flux-Residual
  Residual-Control   Outer-Iter.   Inner-Iter.     Column Row Layer    Maximum-Head-Change  Column Row Layer    Maximum-Flux-Residual          L2-NORM 
          0                 1          11            71   16     1       0.2687769819E+01      71   16    1         0.7119487310E+05      0.5144682529E+06
          0                 2          10            72   15     2       0.1566159632E+01      73   14    1        -0.4506436444E+05      0.7098451034E+05
          0                 3           7            72   15     2      -0.1422267720E+00      35   18    2        -0.1809270671E+04      0.2617961138E+04
          0                 4           5            35   18     2      -0.5069312492E-02      35   18    2        -0.1629696683E+03      0.1638507416E+03

    ------------------------------------------------
       NWT REQUIRED            4 OUTER ITERATIONS 
       AND A TOTAL OF         33 INNER ITERATIONS.
    ------------------------------------------------

 NO OUTPUT CONTROL FOR STRESS PERIOD   25   TIME STEP    5
 
 SOLVING FOR HEAD 
                                                   Max.-Head-Change                         Max.-Flux-Residual
  Residual-Control   Outer-Iter.   Inner-Iter.     Column Row Layer    Maximum-Head-Change  Column Row Layer    Maximum-Flux-Residual          L2-NORM 
          0                 1          11            72   15     2       0.4678868075E+01      71   16    1         0.6702249953E+05      0.4962646121E+06
          0                 2          10            35   18     2      -0.4440230147E+01      64   28    2         0.1288075501E+05      0.5360750041E+05
          0                 3           7            35   18     2       0.6602118122E+00      64   28    2        -0.1285395112E+04      0.2108186769E+04
          0                 4           5            35   18     2       0.1023359648E-01      35   17    2        -0.4831790461E+02      0.5192359231E+02
          0                 5           3            35   18     2       0.1564977028E-03      35   17    2        -0.4143327446E+01      0.4165760477E+01

    ------------------------------------------------
       NWT REQUIRED            5 OUTER ITERATIONS 
       AND A TOTAL OF         36 INNER ITERATIONS.
    ------------------------------------------------

 NO OUTPUT CONTROL FOR STRESS PERIOD   25   TIME STEP    6
 
 SOLVING FOR HEAD 
                                                   Max.-Head-Change                         Max.-Flux-Residual
  Residual-Control   Outer-Iter.   Inner-Iter.     Column Row Layer    Maximum-Head-Change  Column Row Layer    Maximum-Flux-Residual          L2-NORM 
          0                 1          11            72   15     1       0.2746537185E+01      72   15    1         0.7299806236E+05      0.4845080314E+06
          0                 2          10            72   15     1      -0.2508482706E+00      63   23    2        -0.7526397682E+04      0.5023556808E+05
          0                 3           6            66   25     2      -0.2023491923E-01      66   25    2        -0.5254984152E+03      0.6110583401E+03
          0                 4           2            91   77     2      -0.1545862604E-03      67   24    2         0.1329296791E+01      0.1538025939E+01

    ------------------------------------------------
       NWT REQUIRED            4 OUTER ITERATIONS 
       AND A TOTAL OF         29 INNER ITERATIONS.
    ------------------------------------------------

 NO OUTPUT CONTROL FOR STRESS PERIOD   25   TIME STEP    7
 
 SOLVING FOR HEAD 
                                                   Max.-Head-Change                         Max.-Flux-Residual
  Residual-Control   Outer-Iter.   Inner-Iter.     Column Row Layer    Maximum-Head-Change  Column Row Layer    Maximum-Flux-Residual          L2-NORM 
          0                 1          11            72   15     1       0.2577086253E+01      72   15    1         0.6844494763E+05      0.4745711486E+06
          0                 2          10            34   16     2      -0.4260203437E+00      72   15    1        -0.6886197112E+04      0.4872003297E+05
          0                 3           6            34   16     2       0.3072894661E-01      24   32    1        -0.5821040252E+03      0.7916479166E+03
          0                 4           4            24   32     1      -0.1091918874E-02      24   32    1        -0.5239745783E+02      0.5250642659E+02

    ------------------------------------------------
       NWT REQUIRED            4 OUTER ITERATIONS 
       AND A TOTAL OF         31 INNER ITERATIONS.
    ------------------------------------------------

 NO OUTPUT CONTROL FOR STRESS PERIOD   25   TIME STEP    8
 
 SOLVING FOR HEAD 
                                                   Max.-Head-Change                         Max.-Flux-Residual
  Residual-Control   Outer-Iter.   Inner-Iter.     Column Row Layer    Maximum-Head-Change  Column Row Layer    Maximum-Flux-Residual          L2-NORM 
          0                 1          11            34   16     2      -0.4749485653E+01      72   15    1         0.6422460777E+05      0.4669303191E+06
          0                 2          10            70   19     2       0.1833062418E+01      70   19    2         0.2256880432E+05      0.5571299527E+05
          0                 3           7            70   19     2      -0.1661789949E+00      25   60    2        -0.3390738539E+04      0.4606663320E+04
          0                 4           4            25   60     2      -0.4953671577E-02      25   60    2        -0.3052519844E+03      0.3053016059E+03

    ------------------------------------------------
       NWT REQUIRED            4 OUTER ITERATIONS 
       AND A TOTAL OF         32 INNER ITERATIONS.
    ------------------------------------------------

 NO OUTPUT CONTROL FOR STRESS PERIOD   25   TIME STEP    9
 
 SOLVING FOR HEAD 
                                                   Max.-Head-Change                         Max.-Flux-Residual
  Residual-Control   Outer-Iter.   Inner-Iter.     Column Row Layer    Maximum-Head-Change  Column Row Layer    Maximum-Flux-Residual          L2-NORM 
          0                 1          11            70   19     2       0.3145092379E+01      72   15    1         0.6038900194E+05      0.4608907596E+06
          0                 2          10            78   63     1      -0.1023071953E+01      32   27    2         0.7316979482E+04      0.4784895399E+05
          0                 3           6            78   63     1       0.7856367198E-01      13    1    1        -0.2538320846E+04      0.2696873798E+04
          0                 4           4            13    1     1      -0.4193916394E-02      13    1    1        -0.2285184705E+03      0.2285576838E+03

    ------------------------------------------------
       NWT REQUIRED            4 OUTER ITERATIONS 
       AND A TOTAL OF         31 INNER ITERATIONS.
    ------------------------------------------------

 NO OUTPUT CONTROL FOR STRESS PERIOD   25   TIME STEP   10

 INTERPOLATION FOR HEAD OBS# 7923, ID 1705-25-328  CHANGED BECAUSE AT LEAST ONE
 NEIGHBORING CELL REQUIRED FOR INTERPOLATION IS DRY OR INACTIVE (OBS2BAS7SE)

 INTERPOLATION FOR HEAD OBS# 7926, ID 1066-25-335  CHANGED BECAUSE AT LEAST ONE
 NEIGHBORING CELL REQUIRED FOR INTERPOLATION IS DRY OR INACTIVE (OBS2BAS7SE)
 
 SOLVING FOR HEAD 
                                                   Max.-Head-Change                         Max.-Flux-Residual
  Residual-Control   Outer-Iter.   Inner-Iter.     Column Row Layer    Maximum-Head-Change  Column Row Layer    Maximum-Flux-Residual          L2-NORM 
          0                 1          11            72   15     1       0.2156162908E+01      70   19    1         0.6241286077E+05      0.4567402745E+06
          0                 2          10            70   17     2       0.6534785709E+00      32   33    2         0.1187003320E+05      0.4916265866E+05
          0                 3           6            70   17     2      -0.5938406110E-01      70   17    2        -0.5578838341E+03      0.9115587828E+03
          0                 4           3            91   77     2      -0.1180091080E-03      26   32    2         0.6489150777E+01      0.6765329286E+01

    ------------------------------------------------
       NWT REQUIRED            4 OUTER ITERATIONS 
       AND A TOTAL OF         30 INNER ITERATIONS.
    ------------------------------------------------

 NO OUTPUT CONTROL FOR STRESS PERIOD   25   TIME STEP   11

 INTERPOLATION FOR HEAD OBS# 7905, ID 3200-25-336  CHANGED BECAUSE AT LEAST ONE
 NEIGHBORING CELL REQUIRED FOR INTERPOLATION IS DRY OR INACTIVE (OBS2BAS7SE)
 
 SOLVING FOR HEAD 
                                                   Max.-Head-Change                         Max.-Flux-Residual
  Residual-Control   Outer-Iter.   Inner-Iter.     Column Row Layer    Maximum-Head-Change  Column Row Layer    Maximum-Flux-Residual          L2-NORM 
          0                 1          11            70   17     2       0.2311325310E+01      70   19    1         0.5817513813E+05      0.4515917613E+06
          0                 2          10            34   32     1      -0.1387476729E+01      26   32    2        -0.3504356138E+05      0.5880457482E+05
          0                 3           7            34   32     1       0.1210237085E+00      26   32    2         0.3493440815E+04      0.3747357215E+04
          0                 4           3            34   32     1       0.4440792509E-03      34   32    1         0.3329862263E+01      0.3545476465E+01

    ------------------------------------------------
       NWT REQUIRED            4 OUTER ITERATIONS 
       AND A TOTAL OF         31 INNER ITERATIONS.
    ------------------------------------------------

 OUTPUT CONTROL FOR STRESS PERIOD   25   TIME STEP   12
    SAVE BUDGET
 UBDSV1 SAVING "         STORAGE" ON UNIT  39 AT TIME STEP 12, STRESS PERIOD  25
 UBDSV2 SAVING "   CONSTANT HEAD" ON UNIT  39 AT TIME STEP 12, STRESS PERIOD  25
 UBDSV1 SAVING "FLOW RIGHT FACE " ON UNIT  39 AT TIME STEP 12, STRESS PERIOD  25
 UBDSV1 SAVING "FLOW FRONT FACE " ON UNIT  39 AT TIME STEP 12, STRESS PERIOD  25
 UBDSV1 SAVING "FLOW LOWER FACE " ON UNIT  39 AT TIME STEP 12, STRESS PERIOD  25
 UBDSV4 SAVING "           WELLS" ON UNIT  39 AT TIME STEP 12, STRESS PERIOD  25
 UBDSV3 SAVING "              ET" ON UNIT  39 AT TIME STEP 12, STRESS PERIOD  25
 UBDSV3 SAVING "        RECHARGE" ON UNIT  39 AT TIME STEP 12, STRESS PERIOD  25

 INTERPOLATION FOR HEAD OBS# 7973, ID 2928-26-18   CHANGED BECAUSE AT LEAST ONE
 NEIGHBORING CELL REQUIRED FOR INTERPOLATION IS DRY OR INACTIVE (OBS2BAS7SE)

 INTERPOLATION FOR HEAD OBS# 7977, ID 2789-26-18   CHANGED BECAUSE AT LEAST ONE
 NEIGHBORING CELL REQUIRED FOR INTERPOLATION IS DRY OR INACTIVE (OBS2BAS7SE)

 INTERPOLATION FOR HEAD OBS# 7990, ID 2931-26-22   CHANGED BECAUSE AT LEAST ONE
 NEIGHBORING CELL REQUIRED FOR INTERPOLATION IS DRY OR INACTIVE (OBS2BAS7SE)

 INTERPOLATION FOR HEAD OBS# 8000, ID 2303-26-1    CHANGED BECAUSE AT LEAST ONE
 NEIGHBORING CELL REQUIRED FOR INTERPOLATION IS DRY OR INACTIVE (OBS2BAS7SE)

 INTERPOLATION FOR HEAD OBS# 8011, ID 1930-26-14   CHANGED BECAUSE AT LEAST ONE
 NEIGHBORING CELL REQUIRED FOR INTERPOLATION IS DRY OR INACTIVE (OBS2BAS7SE)

 INTERPOLATION FOR HEAD OBS# 8030, ID 1428-26-1    CHANGED BECAUSE AT LEAST ONE
 NEIGHBORING CELL REQUIRED FOR INTERPOLATION IS DRY OR INACTIVE (OBS2BAS7SE)

 INTERPOLATION FOR HEAD OBS# 8114, ID 846-26-13    CHANGED BECAUSE AT LEAST ONE
 NEIGHBORING CELL REQUIRED FOR INTERPOLATION IS DRY OR INACTIVE (OBS2BAS7SE)
1
  VOLUMETRIC BUDGET FOR ENTIRE MODEL AT END OF TIME STEP   12, STRESS PERIOD  25
  ------------------------------------------------------------------------------

     CUMULATIVE VOLUMES      L**3       RATES FOR THIS TIME STEP      L**3/T
     ------------------                 ------------------------

           IN:                                      IN:
           ---                                      ---
             STORAGE =141113081856.0000               STORAGE =    19304212.0000
       CONSTANT HEAD = 11958221824.0000         CONSTANT HEAD =     1371504.8750
               WELLS = 11192543232.0000                 WELLS =     1225642.0000
                  ET =           0.0000                    ET =           0.0000
            RECHARGE =138978295808.0000              RECHARGE =    25394696.0000

            TOTAL IN =303242149888.0000              TOTAL IN =    47296056.0000

          OUT:                                     OUT:
          ----                                     ----
             STORAGE = 15979572224.0000               STORAGE =     4213627.0000
       CONSTANT HEAD = 33092440064.0000         CONSTANT HEAD =     3569425.2500
               WELLS =245240365056.0000                 WELLS =    38809840.0000
                  ET =  8929880064.0000                    ET =      703164.0000
            RECHARGE =           0.0000              RECHARGE =           0.0000

           TOTAL OUT =303242280960.0000             TOTAL OUT =    47296056.0000

            IN - OUT =     -131072.0000              IN - OUT =           0.0000

 PERCENT DISCREPANCY =          -0.00     PERCENT DISCREPANCY =           0.00






         TIME SUMMARY AT END OF TIME STEP   12 IN STRESS PERIOD   25
                    SECONDS     MINUTES      HOURS       DAYS        YEARS
                    -----------------------------------------------------------
   TIME STEP LENGTH 2.63520E+06  43920.      732.00      30.500     8.35044E-02
 STRESS PERIOD TIME 3.16224E+07 5.27040E+05  8784.0      366.00      1.0021    
         TOTAL TIME 7.89004E+08 1.31501E+07 2.19168E+05  9132.0      25.002    
1
1
                            STRESS PERIOD NO.   26, LENGTH =   365.0000    
                            -----------------------------------------------

                              NUMBER OF TIME STEPS =    12

                               MULTIPLIER FOR DELT =     1.000

                            INITIAL TIME STEP SIZE =   30.41667    

   1966 WELLS

 REUSING SURF FROM LAST STRESS PERIOD

 REUSING EVTR FROM LAST STRESS PERIOD

 REUSING EXDP FROM LAST STRESS PERIOD



                           RECHARGE
 READING ON UNIT   16 WITH FORMAT: (15F5.0)            


     63 TIME-VARIANT SPECIFIED-HEAD CELLS
 
 SOLVING FOR HEAD 
                                                   Max.-Head-Change                         Max.-Flux-Residual
  Residual-Control   Outer-Iter.   Inner-Iter.     Column Row Layer    Maximum-Head-Change  Column Row Layer    Maximum-Flux-Residual          L2-NORM 
          0                 1          12            65    2     2      -0.6169149711E+02      32   21    2        -0.5890127957E+06      0.1022756660E+07
          0                 2          10            65    6     2      -0.1684480793E+02      32   21    2         0.5764798988E+05      0.1172465926E+06
          0                 3           8            65    3     2      -0.2048307445E+01      65    3    2        -0.5865625162E+05      0.5882339906E+05
          0                 4           6            65    3     2      -0.1870325841E+00      65    3    2        -0.5343875395E+04      0.5357560550E+04
          0                 5           5            65    3     2      -0.1684024640E-01      65    3    2        -0.4809954534E+03      0.4822680433E+03
          0                 6           3            66    3     2       0.1573559750E-02      65    3    2        -0.4319840358E+02      0.4333017693E+02

    ------------------------------------------------
       NWT REQUIRED            6 OUTER ITERATIONS 
       AND A TOTAL OF         44 INNER ITERATIONS.
    ------------------------------------------------

 NO OUTPUT CONTROL FOR STRESS PERIOD   26   TIME STEP    1

 INTERPOLATION FOR HEAD OBS# 8126, ID 1168-26-35   CHANGED BECAUSE AT LEAST ONE
 NEIGHBORING CELL REQUIRED FOR INTERPOLATION IS DRY OR INACTIVE (OBS2BAS7SE)
 
 SOLVING FOR HEAD 
                                                   Max.-Head-Change                         Max.-Flux-Residual
  Residual-Control   Outer-Iter.   Inner-Iter.     Column Row Layer    Maximum-Head-Change  Column Row Layer    Maximum-Flux-Residual          L2-NORM 
          0                 1          11            65    6     2      -0.1188006464E+02      32   21    2        -0.1786921563E+06      0.6126537862E+06
          0                 2          10            65    3     2      -0.2312037948E+02      23   46    2        -0.1930375253E+05      0.6804984649E+05
          0                 3           7            65    3     2       0.1059550089E+01      32   33    1         0.1459722088E+04      0.2310934142E+04
          0                 4           4            65    3     2       0.5499519861E-01      65    3    2         0.2684787527E+02      0.3009099507E+02
          0                 5           2            65    3     2       0.2847570572E-02      65    3    3         0.2130348668E+01      0.2684526913E+01

    ------------------------------------------------
       NWT REQUIRED            5 OUTER ITERATIONS 
       AND A TOTAL OF         34 INNER ITERATIONS.
    ------------------------------------------------

 NO OUTPUT CONTROL FOR STRESS PERIOD   26   TIME STEP    2

 INTERPOLATION FOR HEAD OBS# 8174, ID 683-26-91    CHANGED BECAUSE AT LEAST ONE
 NEIGHBORING CELL REQUIRED FOR INTERPOLATION IS DRY OR INACTIVE (OBS2BAS7SE)

 INTERPOLATION FOR HEAD OBS# 8178, ID 451-26-85    CHANGED BECAUSE AT LEAST ONE
 NEIGHBORING CELL REQUIRED FOR INTERPOLATION IS DRY OR INACTIVE (OBS2BAS7SE)
 
 SOLVING FOR HEAD 
                                                   Max.-Head-Change                         Max.-Flux-Residual
  Residual-Control   Outer-Iter.   Inner-Iter.     Column Row Layer    Maximum-Head-Change  Column Row Layer    Maximum-Flux-Residual          L2-NORM 
          0                 1          11            23   46     2       0.4204150793E+01      23   46    2         0.8594429368E+05      0.5246744991E+06
          0                 2          10            23   46     2      -0.5064301368E+00      23   46    2        -0.1238136109E+05      0.5370325413E+05
          0                 3           7            19   39     2      -0.2132911231E+00      19   39    2        -0.5266782830E+04      0.5653632522E+04
          0                 4           6            19   39     2      -0.1949565093E-01      19   39    2        -0.4801874955E+03      0.5131990235E+03
          0                 5           5            19   39     2      -0.1755382600E-02      19   39    2        -0.4322171679E+02      0.4618988541E+02

    ------------------------------------------------
       NWT REQUIRED            5 OUTER ITERATIONS 
       AND A TOTAL OF         39 INNER ITERATIONS.
    ------------------------------------------------

 NO OUTPUT CONTROL FOR STRESS PERIOD   26   TIME STEP    3
 
 SOLVING FOR HEAD 
                                                   Max.-Head-Change                         Max.-Flux-Residual
  Residual-Control   Outer-Iter.   Inner-Iter.     Column Row Layer    Maximum-Head-Change  Column Row Layer    Maximum-Flux-Residual          L2-NORM 
          0                 1          11            69   21     1      -0.4737448306E+01      89   66    1         0.5990172392E+05      0.4860450961E+06
          0                 2          10            65    5     2      -0.5183844791E+01      29   33    1        -0.1571114336E+05      0.5223868284E+05
          0                 3           7            19   39     2       0.2520316932E+00      29   33    1         0.1581885823E+04      0.2084400808E+04
          0                 4           4            65    5     2       0.1063048945E-01      65    5    2         0.5607841603E+01      0.9677469620E+01
          0                 5           2            65    5     2       0.5147180340E-03      65    5    3         0.4994624332E+00      0.7425479795E+00

    ------------------------------------------------
       NWT REQUIRED            5 OUTER ITERATIONS 
       AND A TOTAL OF         34 INNER ITERATIONS.
    ------------------------------------------------

 NO OUTPUT CONTROL FOR STRESS PERIOD   26   TIME STEP    4

 INTERPOLATION FOR HEAD OBS# 7950, ID 3016-26-123  CHANGED BECAUSE AT LEAST ONE
 NEIGHBORING CELL REQUIRED FOR INTERPOLATION IS DRY OR INACTIVE (OBS2BAS7SE)
 
 SOLVING FOR HEAD 
                                                   Max.-Head-Change                         Max.-Flux-Residual
  Residual-Control   Outer-Iter.   Inner-Iter.     Column Row Layer    Maximum-Head-Change  Column Row Layer    Maximum-Flux-Residual          L2-NORM 
          0                 1          11            65    5     2      -0.2034273864E+02      89   66    1         0.5620793442E+05      0.4641700522E+06
          0                 2          10            20   41     2      -0.3837018815E+01      26   38    2         0.1111895077E+05      0.5121145243E+05
          0                 3           6            20   41     2       0.3144328156E+00      20   41    2         0.6806943753E+03      0.1119283830E+04
          0                 4           4            85   62     1       0.4195425206E-02      62  116    1        -0.3040640637E+02      0.3167647941E+02

    ------------------------------------------------
       NWT REQUIRED            4 OUTER ITERATIONS 
       AND A TOTAL OF         31 INNER ITERATIONS.
    ------------------------------------------------

 NO OUTPUT CONTROL FOR STRESS PERIOD   26   TIME STEP    5
 
 SOLVING FOR HEAD 
                                                   Max.-Head-Change                         Max.-Flux-Residual
  Residual-Control   Outer-Iter.   Inner-Iter.     Column Row Layer    Maximum-Head-Change  Column Row Layer    Maximum-Flux-Residual          L2-NORM 
          0                 1          11            85   62     1      -0.7130330238E+01      89   66    1         0.5278045021E+05      0.4493186023E+06
          0                 2          10            70   46     1      -0.9729681661E+00      17    7    2         0.7933195873E+04      0.4570338803E+05
          0                 3           6            70   46     1       0.7671103531E-01      20   40    2        -0.1177466447E+04      0.1280543193E+04
          0                 4           5            20   40     2      -0.4630883881E-02      20   40    2        -0.1061342561E+03      0.1061929987E+03

    ------------------------------------------------
       NWT REQUIRED            4 OUTER ITERATIONS 
       AND A TOTAL OF         32 INNER ITERATIONS.
    ------------------------------------------------

 NO OUTPUT CONTROL FOR STRESS PERIOD   26   TIME STEP    6
 
 SOLVING FOR HEAD 
                                                   Max.-Head-Change                         Max.-Flux-Residual
  Residual-Control   Outer-Iter.   Inner-Iter.     Column Row Layer    Maximum-Head-Change  Column Row Layer    Maximum-Flux-Residual          L2-NORM 
          0                 1          11            28   32     1      -0.1469653194E+01      88   65    1         0.5049243961E+05      0.4392922278E+06
          0                 2          10            20   40     2      -0.5884653542E+01      20   40    2        -0.1047831594E+05      0.4628831454E+05
          0                 3           6            20   40     2       0.4728210170E+00      20   40    2         0.9251594036E+03      0.1087563273E+04
          0                 4           5            20   40     2       0.4509659501E-02      20   40    2         0.8709751779E+01      0.1102548676E+02

    ------------------------------------------------
       NWT REQUIRED            4 OUTER ITERATIONS 
       AND A TOTAL OF         32 INNER ITERATIONS.
    ------------------------------------------------

 NO OUTPUT CONTROL FOR STRESS PERIOD   26   TIME STEP    7
 
 SOLVING FOR HEAD 
                                                   Max.-Head-Change                         Max.-Flux-Residual
  Residual-Control   Outer-Iter.   Inner-Iter.     Column Row Layer    Maximum-Head-Change  Column Row Layer    Maximum-Flux-Residual          L2-NORM 
          0                 1          11            91   67     2       0.1334217931E+01      88   65    1         0.4868627180E+05      0.4318218868E+06
          0                 2          10            21   43     2      -0.2387409573E+01      25   32    2         0.1044800887E+05      0.4525406124E+05
          0                 3           7            21   43     2       0.2030345030E+00      21   43    2         0.5929371011E+03      0.7991935176E+03
          0                 4           4            21   43     2       0.1145627964E-02      21   43    2         0.3264491535E+01      0.3525903522E+01

    ------------------------------------------------
       NWT REQUIRED            4 OUTER ITERATIONS 
       AND A TOTAL OF         32 INNER ITERATIONS.
    ------------------------------------------------

 NO OUTPUT CONTROL FOR STRESS PERIOD   26   TIME STEP    8
 
 SOLVING FOR HEAD 
                                                   Max.-Head-Change                         Max.-Flux-Residual
  Residual-Control   Outer-Iter.   Inner-Iter.     Column Row Layer    Maximum-Head-Change  Column Row Layer    Maximum-Flux-Residual          L2-NORM 
          0                 1          11            21   43     2      -0.1518747785E+01      88   65    1         0.4699000411E+05      0.4258211998E+06
          0                 2          10            25   32     1      -0.3531680709E+00      90   67    1        -0.1208234357E+05      0.5011835440E+05
          0                 3           6            88   67     1      -0.1739249418E+00      88   67    1        -0.7771826523E+04      0.7841908391E+04
          0                 4           3            88   67     1      -0.1566839800E-01      88   67    1        -0.7005362008E+03      0.7008647909E+03
          0                 5           1            88   67     1      -0.1408853531E-02      88   67    1        -0.6298230831E+02      0.6301158529E+02

    ------------------------------------------------
       NWT REQUIRED            5 OUTER ITERATIONS 
       AND A TOTAL OF         31 INNER ITERATIONS.
    ------------------------------------------------

 NO OUTPUT CONTROL FOR STRESS PERIOD   26   TIME STEP    9
 
 SOLVING FOR HEAD 
                                                   Max.-Head-Change                         Max.-Flux-Residual
  Residual-Control   Outer-Iter.   Inner-Iter.     Column Row Layer    Maximum-Head-Change  Column Row Layer    Maximum-Flux-Residual          L2-NORM 
          0                 1          11            92   77     2      -0.5458680376E+02      88   65    1         0.4537810233E+05      0.4203587578E+06
          0                 2          10            88   67     1      -0.1311919986E+02      88   67    1        -0.1335477310E+05      0.4663351164E+05
          0                 3           7            88   67     1       0.7249986731E+00      88   67    2        -0.1329421435E+04      0.1835221074E+04
          0                 4           4            88   67     1       0.3012590842E-01      88   67    1         0.3375751392E+02      0.3423408735E+02
          0                 5           2            88   67     1       0.1056364743E-02      88   67    2         0.3025027362E+01      0.3345591659E+01

    ------------------------------------------------
       NWT REQUIRED            5 OUTER ITERATIONS 
       AND A TOTAL OF         34 INNER ITERATIONS.
    ------------------------------------------------

 NO OUTPUT CONTROL FOR STRESS PERIOD   26   TIME STEP   10
 
 SOLVING FOR HEAD 
                                                   Max.-Head-Change                         Max.-Flux-Residual
  Residual-Control   Outer-Iter.   Inner-Iter.     Column Row Layer    Maximum-Head-Change  Column Row Layer    Maximum-Flux-Residual          L2-NORM 
          0                 1          11            19   38     2      -0.2473351061E+01      88   65    1         0.4381943983E+05      0.4158108042E+06
          0                 2          10            33   32     1      -0.1582857942E+01      33   32    1        -0.9209459163E+04      0.4343217293E+05
          0                 3           6            33   32     1       0.1368171940E+00      33   32    1         0.8772040765E+03      0.1187101205E+04
          0                 4           3            81   56     1       0.9078772654E-03      33   32    1         0.3776429217E+01      0.4478977876E+01

    ------------------------------------------------
       NWT REQUIRED            4 OUTER ITERATIONS 
       AND A TOTAL OF         30 INNER ITERATIONS.
    ------------------------------------------------

 NO OUTPUT CONTROL FOR STRESS PERIOD   26   TIME STEP   11

 INTERPOLATION FOR HEAD OBS# 3713, ID 1471-26-349  CHANGED BECAUSE AT LEAST ONE
 NEIGHBORING CELL REQUIRED FOR INTERPOLATION IS DRY OR INACTIVE (OBS2BAS7SE)
 
 SOLVING FOR HEAD 
                                                   Max.-Head-Change                         Max.-Flux-Residual
  Residual-Control   Outer-Iter.   Inner-Iter.     Column Row Layer    Maximum-Head-Change  Column Row Layer    Maximum-Flux-Residual          L2-NORM 
          0                 1          11            81   56     1      -0.1693698649E+01      88   65    1         0.4231771829E+05      0.4129548847E+06
          0                 2          10            30   33     1      -0.5288340937E+00      29   25    1        -0.9372626975E+04      0.4389983538E+05
          0                 3           6            30   33     1       0.4719674425E-01      29   25    1         0.9256540073E+03      0.1435614319E+04
          0                 4           3            30   33     1       0.8708251696E-04      30   33    1         0.1300409358E+01      0.1843933517E+01

    ------------------------------------------------
       NWT REQUIRED            4 OUTER ITERATIONS 
       AND A TOTAL OF         30 INNER ITERATIONS.
    ------------------------------------------------

 OUTPUT CONTROL FOR STRESS PERIOD   26   TIME STEP   12
    SAVE BUDGET
    SAVE HEAD FOR LAYERS:   1  2  3
 UBDSV1 SAVING "         STORAGE" ON UNIT  39 AT TIME STEP 12, STRESS PERIOD  26
 UBDSV2 SAVING "   CONSTANT HEAD" ON UNIT  39 AT TIME STEP 12, STRESS PERIOD  26
 UBDSV1 SAVING "FLOW RIGHT FACE " ON UNIT  39 AT TIME STEP 12, STRESS PERIOD  26
 UBDSV1 SAVING "FLOW FRONT FACE " ON UNIT  39 AT TIME STEP 12, STRESS PERIOD  26
 UBDSV1 SAVING "FLOW LOWER FACE " ON UNIT  39 AT TIME STEP 12, STRESS PERIOD  26
 UBDSV4 SAVING "           WELLS" ON UNIT  39 AT TIME STEP 12, STRESS PERIOD  26
 UBDSV3 SAVING "              ET" ON UNIT  39 AT TIME STEP 12, STRESS PERIOD  26
 UBDSV3 SAVING "        RECHARGE" ON UNIT  39 AT TIME STEP 12, STRESS PERIOD  26

 INTERPOLATION FOR HEAD OBS# 1739, ID 2615-27-20   CHANGED BECAUSE AT LEAST ONE
 NEIGHBORING CELL REQUIRED FOR INTERPOLATION IS DRY OR INACTIVE (OBS2BAS7SE)

 INTERPOLATION FOR HEAD OBS# 6245, ID 1164-27-12   CHANGED BECAUSE AT LEAST ONE
 NEIGHBORING CELL REQUIRED FOR INTERPOLATION IS DRY OR INACTIVE (OBS2BAS7SE)

 INTERPOLATION FOR HEAD OBS# 6268, ID 987-27-12    CHANGED BECAUSE AT LEAST ONE
 NEIGHBORING CELL REQUIRED FOR INTERPOLATION IS DRY OR INACTIVE (OBS2BAS7SE)

 HEAD WILL BE SAVED ON UNIT   31 AT END OF TIME STEP   12, STRESS PERIOD   26
1
  VOLUMETRIC BUDGET FOR ENTIRE MODEL AT END OF TIME STEP   12, STRESS PERIOD  26
  ------------------------------------------------------------------------------

     CUMULATIVE VOLUMES      L**3       RATES FOR THIS TIME STEP      L**3/T
     ------------------                 ------------------------

           IN:                                      IN:
           ---                                      ---
             STORAGE =148821655552.0000               STORAGE =    20373908.0000
       CONSTANT HEAD = 12483458048.0000         CONSTANT HEAD =     1482734.3750
               WELLS = 11639900160.0000                 WELLS =     1225642.0000
                  ET =           0.0000                    ET =           0.0000
            RECHARGE =148165197824.0000              RECHARGE =    25169380.0000

            TOTAL IN =321110212608.0000              TOTAL IN =    48251664.0000

          OUT:                                     OUT:
          ----                                     ----
             STORAGE = 17080483840.0000               STORAGE =     2170962.0000
       CONSTANT HEAD = 34380787712.0000         CONSTANT HEAD =     3504170.7500
               WELLS =260346740736.0000                 WELLS =    41387432.0000
                  ET =  9302206464.0000                    ET =     1189109.7500
            RECHARGE =           0.0000              RECHARGE =           0.0000

           TOTAL OUT =321110212608.0000             TOTAL OUT =    48251672.0000

            IN - OUT =           0.0000              IN - OUT =          -8.0000

 PERCENT DISCREPANCY =           0.00     PERCENT DISCREPANCY =          -0.00






         TIME SUMMARY AT END OF TIME STEP   12 IN STRESS PERIOD   26
                    SECONDS     MINUTES      HOURS       DAYS        YEARS
                    -----------------------------------------------------------
   TIME STEP LENGTH 2.62800E+06  43800.      730.00      30.417     8.32763E-02
 STRESS PERIOD TIME 3.15360E+07 5.25600E+05  8760.0      365.00     0.99932    
         TOTAL TIME 8.20541E+08 1.36757E+07 2.27928E+05  9497.0      26.001    
1
1
                            STRESS PERIOD NO.   27, LENGTH =   365.0000    
                            -----------------------------------------------

                              NUMBER OF TIME STEPS =    12

                               MULTIPLIER FOR DELT =     1.000

                            INITIAL TIME STEP SIZE =   30.41667    

   1462 WELLS

 REUSING SURF FROM LAST STRESS PERIOD

 REUSING EVTR FROM LAST STRESS PERIOD

 REUSING EXDP FROM LAST STRESS PERIOD



                           RECHARGE
 READING ON UNIT   16 WITH FORMAT: (15F5.0)            


     63 TIME-VARIANT SPECIFIED-HEAD CELLS
 
 SOLVING FOR HEAD 
                                                   Max.-Head-Change                         Max.-Flux-Residual
  Residual-Control   Outer-Iter.   Inner-Iter.     Column Row Layer    Maximum-Head-Change  Column Row Layer    Maximum-Flux-Residual          L2-NORM 
          0                 1          12            92   77     2       0.8238576146E+02      65   89    1        -0.5907780574E+06      0.1449386405E+07
          0                 2          10            92   77     2      -0.2645366097E+02      92   77    2        -0.7931798793E+06      0.8760301122E+06
          0                 3           6            91   77     2       0.6410382777E+01      92   77    2        -0.9813114864E+04      0.1206249244E+05
          0                 4           4            91   77     2       0.9257408303E+00      91   77    2         0.5178916712E+03      0.7130031530E+03
          0                 5           3            91   77     2       0.1295717388E+00      91   77    2         0.7242409347E+02      0.8482959527E+02
          0                 6           2            91   77     2       0.1814016205E-01      91   77    2         0.1013926480E+02      0.1090209460E+02
          0                 7           1            91   77     2       0.2538261340E-02      91   77    2         0.1418647314E+01      0.1466836897E+01

    ------------------------------------------------
       NWT REQUIRED            7 OUTER ITERATIONS 
       AND A TOTAL OF         38 INNER ITERATIONS.
    ------------------------------------------------

 NO OUTPUT CONTROL FOR STRESS PERIOD   27   TIME STEP    1

 INTERPOLATION FOR HEAD OBS# 1080, ID 2927-27-32   CHANGED BECAUSE AT LEAST ONE
 NEIGHBORING CELL REQUIRED FOR INTERPOLATION IS DRY OR INACTIVE (OBS2BAS7SE)
 
 SOLVING FOR HEAD 
                                                   Max.-Head-Change                         Max.-Flux-Residual
  Residual-Control   Outer-Iter.   Inner-Iter.     Column Row Layer    Maximum-Head-Change  Column Row Layer    Maximum-Flux-Residual          L2-NORM 
          0                 1          11            66  101     3      -0.7463955168E+01      65   89    1        -0.2519147868E+06      0.7545602886E+06
          0                 2          10            22   46     2      -0.3580507593E+01      65   89    1         0.2314793201E+05      0.7681689213E+05
          0                 3           7            22   46     2       0.3154095973E+00      22   46    2         0.1429163180E+04      0.1657162964E+04
          0                 4           4            22   46     2       0.1187040484E-02      22   46    2         0.5393276754E+01      0.9433397425E+01

    ------------------------------------------------
       NWT REQUIRED            4 OUTER ITERATIONS 
       AND A TOTAL OF         32 INNER ITERATIONS.
    ------------------------------------------------

 NO OUTPUT CONTROL FOR STRESS PERIOD   27   TIME STEP    2
 
 SOLVING FOR HEAD 
                                                   Max.-Head-Change                         Max.-Flux-Residual
  Residual-Control   Outer-Iter.   Inner-Iter.     Column Row Layer    Maximum-Head-Change  Column Row Layer    Maximum-Flux-Residual          L2-NORM 
          0                 1          11            22   46     2      -0.3976772206E+01      65   89    1        -0.1245681215E+06      0.5778217319E+06
          0                 2          10            73   14     1      -0.1905628589E+01      70   19    2         0.3807590888E+05      0.7074135750E+05
          0                 3           6            73   14     1       0.1662302591E+00      73   14    1         0.1307479935E+04      0.1361975077E+04
          0                 4           3            73   14     1       0.6058117466E-03      73   14    1         0.4605429575E+01      0.4735376159E+01

    ------------------------------------------------
       NWT REQUIRED            4 OUTER ITERATIONS 
       AND A TOTAL OF         30 INNER ITERATIONS.
    ------------------------------------------------

 NO OUTPUT CONTROL FOR STRESS PERIOD   27   TIME STEP    3
 
 SOLVING FOR HEAD 
                                                   Max.-Head-Change                         Max.-Flux-Residual
  Residual-Control   Outer-Iter.   Inner-Iter.     Column Row Layer    Maximum-Head-Change  Column Row Layer    Maximum-Flux-Residual          L2-NORM 
          0                 1          11            23   46     2      -0.2620430574E+01      65   89    1        -0.7227289483E+05      0.5062654818E+06
          0                 2          10            67  102     1      -0.9272337669E+00      88   65    1        -0.7189490999E+04      0.5116128937E+05
          0                 3           6            67  102     1       0.7169326795E-01      21   20    1         0.5260867389E+03      0.7369333100E+03
          0                 4           3            67  102     1       0.9769772937E-03      67  102    1         0.1999543426E+01      0.2105626586E+01

    ------------------------------------------------
       NWT REQUIRED            4 OUTER ITERATIONS 
       AND A TOTAL OF         30 INNER ITERATIONS.
    ------------------------------------------------

 NO OUTPUT CONTROL FOR STRESS PERIOD   27   TIME STEP    4

 INTERPOLATION FOR HEAD OBS# 8188, ID 3055-27-126  CHANGED BECAUSE AT LEAST ONE
 NEIGHBORING CELL REQUIRED FOR INTERPOLATION IS DRY OR INACTIVE (OBS2BAS7SE)
 
 SOLVING FOR HEAD 
                                                   Max.-Head-Change                         Max.-Flux-Residual
  Residual-Control   Outer-Iter.   Inner-Iter.     Column Row Layer    Maximum-Head-Change  Column Row Layer    Maximum-Flux-Residual          L2-NORM 
          0                 1          11            23   46     2      -0.2076550235E+01      88   65    1         0.6976365825E+05      0.4690955309E+06
          0                 2          10            18   32     2      -0.4995656383E+00      88   65    1        -0.6997607629E+04      0.4799510049E+05
          0                 3           6            18   32     2       0.4759507837E-01      18   32    2         0.4861352197E+03      0.5696751946E+03
          0                 4           3            18   32     2       0.9670593771E-04      90   52    1        -0.4544012457E+01      0.5244981129E+01

    ------------------------------------------------
       NWT REQUIRED            4 OUTER ITERATIONS 
       AND A TOTAL OF         30 INNER ITERATIONS.
    ------------------------------------------------

 NO OUTPUT CONTROL FOR STRESS PERIOD   27   TIME STEP    5
 
 SOLVING FOR HEAD 
                                                   Max.-Head-Change                         Max.-Flux-Residual
  Residual-Control   Outer-Iter.   Inner-Iter.     Column Row Layer    Maximum-Head-Change  Column Row Layer    Maximum-Flux-Residual          L2-NORM 
          0                 1          11            88   65     1       0.1761290946E+01      88   65    1         0.6788322602E+05      0.4454940082E+06
          0                 2          10            21   42     2      -0.7808684470E+00      87   66    1        -0.3088523314E+05      0.5457314783E+05
          0                 3           6            21   42     2       0.6374078272E-01      25   24    1         0.4282349130E+03      0.5782900790E+03
          0                 4           4            21   42     2       0.6133616385E-03      57   77    1        -0.1237001533E+02      0.1255410243E+02

    ------------------------------------------------
       NWT REQUIRED            4 OUTER ITERATIONS 
       AND A TOTAL OF         31 INNER ITERATIONS.
    ------------------------------------------------

 NO OUTPUT CONTROL FOR STRESS PERIOD   27   TIME STEP    6
 
 SOLVING FOR HEAD 
                                                   Max.-Head-Change                         Max.-Flux-Residual
  Residual-Control   Outer-Iter.   Inner-Iter.     Column Row Layer    Maximum-Head-Change  Column Row Layer    Maximum-Flux-Residual          L2-NORM 
          0                 1          11            21   42     2      -0.4769658493E+01      88   65    1         0.6604259379E+05      0.4288712668E+06
          0                 2          10            26   83     2      -0.4006180942E+00      88   65    1        -0.6622532263E+04      0.4389955038E+05
          0                 3           6            57   77     1       0.2264349498E-01      57   77    1         0.3466706497E+03      0.3624070761E+03
          0                 4           3            26   83     2       0.7136744243E-03      24   48    2        -0.8670400530E+00      0.1464981943E+01

    ------------------------------------------------
       NWT REQUIRED            4 OUTER ITERATIONS 
       AND A TOTAL OF         30 INNER ITERATIONS.
    ------------------------------------------------

 NO OUTPUT CONTROL FOR STRESS PERIOD   27   TIME STEP    7
 
 SOLVING FOR HEAD 
                                                   Max.-Head-Change                         Max.-Flux-Residual
  Residual-Control   Outer-Iter.   Inner-Iter.     Column Row Layer    Maximum-Head-Change  Column Row Layer    Maximum-Flux-Residual          L2-NORM 
          0                 1          11            88   65     1       0.1666713613E+01      88   65    1         0.6424779674E+05      0.4164536115E+06
          0                 2          10            87   65     2       0.6572713310E+01      87   65    2         0.1276600837E+05      0.4412876225E+05
          0                 3           6            87   65     2      -0.5975199434E+00      87   65    2        -0.1276600862E+04      0.1467440689E+04
          0                 4           3            16   27     2       0.1118036266E-03      16   27    2         0.1039708741E+01      0.1494717785E+01

    ------------------------------------------------
       NWT REQUIRED            4 OUTER ITERATIONS 
       AND A TOTAL OF         30 INNER ITERATIONS.
    ------------------------------------------------

 NO OUTPUT CONTROL FOR STRESS PERIOD   27   TIME STEP    8
 
 SOLVING FOR HEAD 
                                                   Max.-Head-Change                         Max.-Flux-Residual
  Residual-Control   Outer-Iter.   Inner-Iter.     Column Row Layer    Maximum-Head-Change  Column Row Layer    Maximum-Flux-Residual          L2-NORM 
          0                 1          11            87   65     2       0.4610670101E+01      88   65    1         0.6327137702E+05      0.4066983072E+06
          0                 2          10            64   39     2      -0.2034831631E+01      70   19    1        -0.1460676169E+05      0.4552384548E+05
          0                 3           6            70   19     1       0.1697747937E+00      90   67    2        -0.1429098550E+04      0.2041800576E+04
          0                 4           2            64   39     2       0.4193557877E-02      70   19    1         0.5092215445E+01      0.5775047579E+01

    ------------------------------------------------
       NWT REQUIRED            4 OUTER ITERATIONS 
       AND A TOTAL OF         29 INNER ITERATIONS.
    ------------------------------------------------

 NO OUTPUT CONTROL FOR STRESS PERIOD   27   TIME STEP    9
 
 SOLVING FOR HEAD 
                                                   Max.-Head-Change                         Max.-Flux-Residual
  Residual-Control   Outer-Iter.   Inner-Iter.     Column Row Layer    Maximum-Head-Change  Column Row Layer    Maximum-Flux-Residual          L2-NORM 
          0                 1          11            70   19     1      -0.2147368809E+01      88   65    1         0.6205559914E+05      0.3995460665E+06
          0                 2          10            78   59     1      -0.6233805617E+00      17    8    2         0.8459646066E+04      0.4140236651E+05
          0                 3           6            78   59     1       0.5366304067E-01      28   31    1         0.3766862753E+03      0.4568762586E+03
          0                 4           3            78   59     1       0.2574641329E-03      78   59    1         0.9999852357E+00      0.1176421968E+01

    ------------------------------------------------
       NWT REQUIRED            4 OUTER ITERATIONS 
       AND A TOTAL OF         30 INNER ITERATIONS.
    ------------------------------------------------

 NO OUTPUT CONTROL FOR STRESS PERIOD   27   TIME STEP   10
 
 SOLVING FOR HEAD 
                                                   Max.-Head-Change                         Max.-Flux-Residual
  Residual-Control   Outer-Iter.   Inner-Iter.     Column Row Layer    Maximum-Head-Change  Column Row Layer    Maximum-Flux-Residual          L2-NORM 
          0                 1          11            88   65     1       0.1569320650E+01      88   65    1         0.6045412253E+05      0.3932425523E+06
          0                 2          10            88   65     1      -0.1429304630E+00      88   65    1        -0.6058752412E+04      0.3969041380E+05
          0                 3           5            24   12     1       0.1664228255E-02      24   12    2        -0.4796226891E+02      0.7211445131E+02

    ------------------------------------------------
       NWT REQUIRED            3 OUTER ITERATIONS 
       AND A TOTAL OF         26 INNER ITERATIONS.
    ------------------------------------------------

 NO OUTPUT CONTROL FOR STRESS PERIOD   27   TIME STEP   11
 
 SOLVING FOR HEAD 
                                                   Max.-Head-Change                         Max.-Flux-Residual
  Residual-Control   Outer-Iter.   Inner-Iter.     Column Row Layer    Maximum-Head-Change  Column Row Layer    Maximum-Flux-Residual          L2-NORM 
          0                 1          11            88   65     1       0.1527679241E+01      88   65    1         0.5885221976E+05      0.3870955991E+06
          0                 2          10            67  101     1      -0.7560896641E+00      88   65    1        -0.5897573273E+04      0.3884580420E+05
          0                 3           6            67  101     1       0.5893171061E-01      35   32    1        -0.1017024503E+04      0.1031335113E+04
          0                 4           3            35   32     1      -0.2660899978E-02      35   32    1        -0.9154466696E+02      0.9157523484E+02

    ------------------------------------------------
       NWT REQUIRED            4 OUTER ITERATIONS 
       AND A TOTAL OF         30 INNER ITERATIONS.
    ------------------------------------------------

 OUTPUT CONTROL FOR STRESS PERIOD   27   TIME STEP   12
    SAVE BUDGET
 UBDSV1 SAVING "         STORAGE" ON UNIT  39 AT TIME STEP 12, STRESS PERIOD  27
 UBDSV2 SAVING "   CONSTANT HEAD" ON UNIT  39 AT TIME STEP 12, STRESS PERIOD  27
 UBDSV1 SAVING "FLOW RIGHT FACE " ON UNIT  39 AT TIME STEP 12, STRESS PERIOD  27
 UBDSV1 SAVING "FLOW FRONT FACE " ON UNIT  39 AT TIME STEP 12, STRESS PERIOD  27
 UBDSV1 SAVING "FLOW LOWER FACE " ON UNIT  39 AT TIME STEP 12, STRESS PERIOD  27
 UBDSV4 SAVING "           WELLS" ON UNIT  39 AT TIME STEP 12, STRESS PERIOD  27
 UBDSV3 SAVING "              ET" ON UNIT  39 AT TIME STEP 12, STRESS PERIOD  27
 UBDSV3 SAVING "        RECHARGE" ON UNIT  39 AT TIME STEP 12, STRESS PERIOD  27
1
  VOLUMETRIC BUDGET FOR ENTIRE MODEL AT END OF TIME STEP   12, STRESS PERIOD  27
  ------------------------------------------------------------------------------

     CUMULATIVE VOLUMES      L**3       RATES FOR THIS TIME STEP      L**3/T
     ------------------                 ------------------------

           IN:                                      IN:
           ---                                      ---
             STORAGE =155020361728.0000               STORAGE =    15723899.0000
       CONSTANT HEAD = 13016660992.0000         CONSTANT HEAD =     1466385.3750
               WELLS = 12087257088.0000                 WELLS =     1225642.0000
                  ET =           0.0000                    ET =           0.0000
            RECHARGE =157379428352.0000              RECHARGE =    25244566.0000

            TOTAL IN =337503715328.0000              TOTAL IN =    43660492.0000

          OUT:                                     OUT:
          ----                                     ----
             STORAGE = 19123564544.0000               STORAGE =     4291227.0000
       CONSTANT HEAD = 35693895680.0000         CONSTANT HEAD =     3616287.5000
               WELLS =272945577984.0000                 WELLS =    34517492.0000
                  ET =  9740688384.0000                    ET =     1235498.2500
            RECHARGE =           0.0000              RECHARGE =           0.0000

           TOTAL OUT =337503715328.0000             TOTAL OUT =    43660508.0000

            IN - OUT =           0.0000              IN - OUT =         -16.0000

 PERCENT DISCREPANCY =           0.00     PERCENT DISCREPANCY =          -0.00






         TIME SUMMARY AT END OF TIME STEP   12 IN STRESS PERIOD   27
                    SECONDS     MINUTES      HOURS       DAYS        YEARS
                    -----------------------------------------------------------
   TIME STEP LENGTH 2.62800E+06  43800.      730.00      30.417     8.32763E-02
 STRESS PERIOD TIME 3.15360E+07 5.25600E+05  8760.0      365.00     0.99932    
         TOTAL TIME 8.52077E+08 1.42013E+07 2.36688E+05  9862.0      27.001    
1
1
                            STRESS PERIOD NO.   28, LENGTH =   365.0000    
                            -----------------------------------------------

                              NUMBER OF TIME STEPS =    12

                               MULTIPLIER FOR DELT =     1.000

                            INITIAL TIME STEP SIZE =   30.41667    

   1494 WELLS

 REUSING SURF FROM LAST STRESS PERIOD

 REUSING EVTR FROM LAST STRESS PERIOD

 REUSING EXDP FROM LAST STRESS PERIOD



                           RECHARGE
 READING ON UNIT   16 WITH FORMAT: (15F5.0)            


     63 TIME-VARIANT SPECIFIED-HEAD CELLS
 
 SOLVING FOR HEAD 
                                                   Max.-Head-Change                         Max.-Flux-Residual
  Residual-Control   Outer-Iter.   Inner-Iter.     Column Row Layer    Maximum-Head-Change  Column Row Layer    Maximum-Flux-Residual          L2-NORM 
          0                 1          12            65    2     2       0.1228304939E+03      65   89    1         0.5397284596E+06      0.1368770366E+07
          0                 2          10            65    5     2      -0.2976708705E+02      65    5    2        -0.7995278082E+06      0.1352597175E+07
          0                 3           8            66    5     2       0.4875744722E+01      66   25    2         0.1809293129E+05      0.2302018710E+05
          0                 4           4            66    5     2       0.7506592386E+00      66   25    2         0.1626103520E+04      0.1805548714E+04
          0                 5           3            66    5     2       0.1128863567E+00      66   25    2         0.1461685472E+03      0.1696287941E+03
          0                 6           2            66    5     2       0.1696575693E-01      66   25    2         0.1312579396E+02      0.1676004839E+02
          0                 7           2            66    5     2       0.2548190087E-02      66   25    2         0.1177386083E+01      0.1812017131E+01

    ------------------------------------------------
       NWT REQUIRED            7 OUTER ITERATIONS 
       AND A TOTAL OF         41 INNER ITERATIONS.
    ------------------------------------------------

 NO OUTPUT CONTROL FOR STRESS PERIOD   28   TIME STEP    1
 
 SOLVING FOR HEAD 
                                                   Max.-Head-Change                         Max.-Flux-Residual
  Residual-Control   Outer-Iter.   Inner-Iter.     Column Row Layer    Maximum-Head-Change  Column Row Layer    Maximum-Flux-Residual          L2-NORM 
          0                 1          11            60   87     2      -0.7369838810E+01      60   87    2        -0.2504788922E+06      0.8342030030E+06
          0                 2          10            23   48     2      -0.2316391023E+01      66   25    2         0.2645842217E+05      0.8945910411E+05
          0                 3           6            23   48     2       0.2039495413E+00      66   25    2        -0.2633750210E+04      0.3041338251E+04
          0                 4           4            23   48     2       0.6347196771E-03      23   48    2         0.3393990044E+01      0.4089282565E+01

    ------------------------------------------------
       NWT REQUIRED            4 OUTER ITERATIONS 
       AND A TOTAL OF         31 INNER ITERATIONS.
    ------------------------------------------------

 NO OUTPUT CONTROL FOR STRESS PERIOD   28   TIME STEP    2
 
 SOLVING FOR HEAD 
                                                   Max.-Head-Change                         Max.-Flux-Residual
  Residual-Control   Outer-Iter.   Inner-Iter.     Column Row Layer    Maximum-Head-Change  Column Row Layer    Maximum-Flux-Residual          L2-NORM 
          0                 1          11            60   87     2      -0.5637101554E+01      60   87    2        -0.1854568230E+06      0.7017716527E+06
          0                 2          10            66  101     2       0.9328734418E+00      60   87    2         0.1790578341E+05      0.7153610219E+05
          0                 3           6            66  101     2      -0.8481421155E-01      66  101    2        -0.5967884303E+03      0.6985935630E+03
          0                 4           3            91   77     2      -0.1118328911E-03      23   13    1         0.1648793817E+00      0.3490694339E+00

    ------------------------------------------------
       NWT REQUIRED            4 OUTER ITERATIONS 
       AND A TOTAL OF         30 INNER ITERATIONS.
    ------------------------------------------------

 NO OUTPUT CONTROL FOR STRESS PERIOD   28   TIME STEP    3
 
 SOLVING FOR HEAD 
                                                   Max.-Head-Change                         Max.-Flux-Residual
  Residual-Control   Outer-Iter.   Inner-Iter.     Column Row Layer    Maximum-Head-Change  Column Row Layer    Maximum-Flux-Residual          L2-NORM 
          0                 1          11            72   15     1       0.4492073012E+01      60   87    2        -0.1416977805E+06      0.6411040845E+06
          0                 2          10            55   81     3       0.2071090599E+01      66   20    1        -0.2395955509E+05      0.7218911931E+05
          0                 3           6            55   81     3      -0.1882785657E+00      70   19    2        -0.1634838744E+04      0.2135758909E+04
          0                 4           2            68  104     1       0.2766821987E-03      68  104    1         0.7158954404E+00      0.7980394372E+00

    ------------------------------------------------
       NWT REQUIRED            4 OUTER ITERATIONS 
       AND A TOTAL OF         29 INNER ITERATIONS.
    ------------------------------------------------

 NO OUTPUT CONTROL FOR STRESS PERIOD   28   TIME STEP    4
 
 SOLVING FOR HEAD 
                                                   Max.-Head-Change                         Max.-Flux-Residual
  Residual-Control   Outer-Iter.   Inner-Iter.     Column Row Layer    Maximum-Head-Change  Column Row Layer    Maximum-Flux-Residual          L2-NORM 
          0                 1          11            70   19     2       0.7556213063E+01      72   15    1         0.1121976351E+06      0.6051884893E+06
          0                 2          10            18   36     2      -0.1278955964E+01      70   19    2        -0.1208165581E+05      0.6256710667E+05
          0                 3           7            18   36     2       0.1126745442E+00      18   36    2         0.7622086468E+03      0.9774358731E+03
          0                 4           4            18   36     2       0.3246156135E-03      18   36    2         0.2100412939E+01      0.3404388845E+01

    ------------------------------------------------
       NWT REQUIRED            4 OUTER ITERATIONS 
       AND A TOTAL OF         32 INNER ITERATIONS.
    ------------------------------------------------

 NO OUTPUT CONTROL FOR STRESS PERIOD   28   TIME STEP    5
 
 SOLVING FOR HEAD 
                                                   Max.-Head-Change                         Max.-Flux-Residual
  Residual-Control   Outer-Iter.   Inner-Iter.     Column Row Layer    Maximum-Head-Change  Column Row Layer    Maximum-Flux-Residual          L2-NORM 
          0                 1          11            70   19     1       0.3940495856E+01      70   19    1         0.1165785832E+06      0.5842987113E+06
          0                 2          10            18   34     2       0.4830990974E+00      66   23    1        -0.1504687997E+05      0.6205704176E+05
          0                 3           6            66   23     2       0.6539577828E-01      66   23    2         0.4464280406E+04      0.4470847221E+04
          0                 4           3            66   23     2       0.5884291500E-02      66   23    2         0.4016667787E+03      0.4017024479E+03

    ------------------------------------------------
       NWT REQUIRED            4 OUTER ITERATIONS 
       AND A TOTAL OF         30 INNER ITERATIONS.
    ------------------------------------------------

 NO OUTPUT CONTROL FOR STRESS PERIOD   28   TIME STEP    6
 
 SOLVING FOR HEAD 
                                                   Max.-Head-Change                         Max.-Flux-Residual
  Residual-Control   Outer-Iter.   Inner-Iter.     Column Row Layer    Maximum-Head-Change  Column Row Layer    Maximum-Flux-Residual          L2-NORM 
          0                 1          11            72   15     1       0.3643041992E+01      70   19    1         0.1066490961E+06      0.5648181809E+06
          0                 2          10            73   14     2       0.2900257459E+01      73   14    2         0.2965575925E+05      0.6859310983E+05
          0                 3           6            73   14     2      -0.2635102189E+00      73   14    2        -0.2949251773E+04      0.3348030858E+04
          0                 4           4            23   47     2       0.2684065346E-03      23   47    2         0.1089637648E+01      0.1466361643E+01

    ------------------------------------------------
       NWT REQUIRED            4 OUTER ITERATIONS 
       AND A TOTAL OF         31 INNER ITERATIONS.
    ------------------------------------------------

 NO OUTPUT CONTROL FOR STRESS PERIOD   28   TIME STEP    7
 
 SOLVING FOR HEAD 
                                                   Max.-Head-Change                         Max.-Flux-Residual
  Residual-Control   Outer-Iter.   Inner-Iter.     Column Row Layer    Maximum-Head-Change  Column Row Layer    Maximum-Flux-Residual          L2-NORM 
          0                 1          11            73   14     2       0.4063242692E+01      70   19    1         0.9769307851E+05      0.5506500905E+06
          0                 2          10            73   14     2      -0.3707747718E+00      70   19    1        -0.9835078879E+04      0.5624426739E+05
          0                 3           6            25   26     1       0.1544454435E-01      25   26    1         0.5119677116E+03      0.8774137294E+03
          0                 4           3            91   77     2      -0.8515417836E-04      25   26    1         0.4271006435E+00      0.5860192340E+00

    ------------------------------------------------
       NWT REQUIRED            4 OUTER ITERATIONS 
       AND A TOTAL OF         30 INNER ITERATIONS.
    ------------------------------------------------

 NO OUTPUT CONTROL FOR STRESS PERIOD   28   TIME STEP    8
 
 SOLVING FOR HEAD 
                                                   Max.-Head-Change                         Max.-Flux-Residual
  Residual-Control   Outer-Iter.   Inner-Iter.     Column Row Layer    Maximum-Head-Change  Column Row Layer    Maximum-Flux-Residual          L2-NORM 
          0                 1          11            72   15     1       0.3223821945E+01      70   19    1         0.8972704882E+05      0.5401336393E+06
          0                 2          10            72   15     1      -0.2942231287E+00      70   19    1        -0.9023917038E+04      0.5509514326E+05
          0                 3           6            66   19     1      -0.3089617743E-01      17    5    1         0.2871246748E+03      0.4778659486E+03
          0                 4           3            66   19     1      -0.1240377857E-03      66   19    1        -0.1049026903E+01      0.1320953147E+01

    ------------------------------------------------
       NWT REQUIRED            4 OUTER ITERATIONS 
       AND A TOTAL OF         30 INNER ITERATIONS.
    ------------------------------------------------

 NO OUTPUT CONTROL FOR STRESS PERIOD   28   TIME STEP    9
 
 SOLVING FOR HEAD 
                                                   Max.-Head-Change                         Max.-Flux-Residual
  Residual-Control   Outer-Iter.   Inner-Iter.     Column Row Layer    Maximum-Head-Change  Column Row Layer    Maximum-Flux-Residual          L2-NORM 
          0                 1          11            72   15     1       0.3042249147E+01      70   19    1         0.8264735938E+05      0.5298150479E+06
          0                 2          10            18   35     2      -0.1184751122E+01      66   19    1        -0.2164459606E+05      0.6243742687E+05
          0                 3           6            18   35     2       0.1046996710E+00      18   35    2         0.8148757800E+03      0.1544403234E+04
          0                 4           4            26   26     1      -0.7791816494E-03      26   26    1        -0.5046882159E+02      0.5225655136E+02

    ------------------------------------------------
       NWT REQUIRED            4 OUTER ITERATIONS 
       AND A TOTAL OF         31 INNER ITERATIONS.
    ------------------------------------------------

 NO OUTPUT CONTROL FOR STRESS PERIOD   28   TIME STEP   10
 
 SOLVING FOR HEAD 
                                                   Max.-Head-Change                         Max.-Flux-Residual
  Residual-Control   Outer-Iter.   Inner-Iter.     Column Row Layer    Maximum-Head-Change  Column Row Layer    Maximum-Flux-Residual          L2-NORM 
          0                 1          11            72   15     1       0.2878883896E+01      70   19    1         0.7639664805E+05      0.5208148344E+06
          0                 2          10            66   20     2       0.6155065724E+00      66   20    2         0.1148286536E+05      0.5472235457E+05
          0                 3           6            66   20     2      -0.5596024989E-01      66   20    2        -0.1136163668E+04      0.1766520583E+04
          0                 4           3            91   77     2      -0.7343693316E-04      78   48    1        -0.8523279834E+00      0.1370101091E+01

    ------------------------------------------------
       NWT REQUIRED            4 OUTER ITERATIONS 
       AND A TOTAL OF         30 INNER ITERATIONS.
    ------------------------------------------------

 NO OUTPUT CONTROL FOR STRESS PERIOD   28   TIME STEP   11
 
 SOLVING FOR HEAD 
                                                   Max.-Head-Change                         Max.-Flux-Residual
  Residual-Control   Outer-Iter.   Inner-Iter.     Column Row Layer    Maximum-Head-Change  Column Row Layer    Maximum-Flux-Residual          L2-NORM 
          0                 1          11            21   41     2      -0.6678195862E+01      72   15    1         0.7197124533E+05      0.5136427937E+06
          0                 2          10            21   41     2       0.4818650191E+00      72   15    1        -0.7225836985E+04      0.5242487492E+05
          0                 3           7            66  105     1       0.2862179497E-01      23   46    3         0.1665377470E+03      0.1864819804E+03
          0                 4           3            66  105     1       0.3531696624E-03      68   49    1        -0.1032561183E+01      0.1295894244E+01

    ------------------------------------------------
       NWT REQUIRED            4 OUTER ITERATIONS 
       AND A TOTAL OF         31 INNER ITERATIONS.
    ------------------------------------------------

 OUTPUT CONTROL FOR STRESS PERIOD   28   TIME STEP   12
    SAVE BUDGET
 UBDSV1 SAVING "         STORAGE" ON UNIT  39 AT TIME STEP 12, STRESS PERIOD  28
 UBDSV2 SAVING "   CONSTANT HEAD" ON UNIT  39 AT TIME STEP 12, STRESS PERIOD  28
 UBDSV1 SAVING "FLOW RIGHT FACE " ON UNIT  39 AT TIME STEP 12, STRESS PERIOD  28
 UBDSV1 SAVING "FLOW FRONT FACE " ON UNIT  39 AT TIME STEP 12, STRESS PERIOD  28
 UBDSV1 SAVING "FLOW LOWER FACE " ON UNIT  39 AT TIME STEP 12, STRESS PERIOD  28
 UBDSV4 SAVING "           WELLS" ON UNIT  39 AT TIME STEP 12, STRESS PERIOD  28
 UBDSV3 SAVING "              ET" ON UNIT  39 AT TIME STEP 12, STRESS PERIOD  28
 UBDSV3 SAVING "        RECHARGE" ON UNIT  39 AT TIME STEP 12, STRESS PERIOD  28
1
  VOLUMETRIC BUDGET FOR ENTIRE MODEL AT END OF TIME STEP   12, STRESS PERIOD  28
  ------------------------------------------------------------------------------

     CUMULATIVE VOLUMES      L**3       RATES FOR THIS TIME STEP      L**3/T
     ------------------                 ------------------------

           IN:                                      IN:
           ---                                      ---
             STORAGE =161988542464.0000               STORAGE =    18331992.0000
       CONSTANT HEAD = 13557524480.0000         CONSTANT HEAD =     1514635.7500
               WELLS = 12534614016.0000                 WELLS =     1225642.0000
                  ET =           0.0000                    ET =           0.0000
            RECHARGE =167871021056.0000              RECHARGE =    28743986.0000

            TOTAL IN =355951706112.0000              TOTAL IN =    49816256.0000

          OUT:                                     OUT:
          ----                                     ----
             STORAGE = 22000711680.0000               STORAGE =     7220601.0000
       CONSTANT HEAD = 37014331392.0000         CONSTANT HEAD =     3609710.7500
               WELLS =286811947008.0000                 WELLS =    37989856.0000
                  ET = 10124792832.0000                    ET =      996092.2500
            RECHARGE =           0.0000              RECHARGE =           0.0000

           TOTAL OUT =355951771648.0000             TOTAL OUT =    49816260.0000

            IN - OUT =      -65536.0000              IN - OUT =          -4.0000

 PERCENT DISCREPANCY =          -0.00     PERCENT DISCREPANCY =          -0.00






         TIME SUMMARY AT END OF TIME STEP   12 IN STRESS PERIOD   28
                    SECONDS     MINUTES      HOURS       DAYS        YEARS
                    -----------------------------------------------------------
   TIME STEP LENGTH 2.62800E+06  43800.      730.00      30.417     8.32763E-02
 STRESS PERIOD TIME 3.15360E+07 5.25600E+05  8760.0      365.00     0.99932    
         TOTAL TIME 8.83613E+08 1.47269E+07 2.45448E+05  10227.      28.000    
1
1
                            STRESS PERIOD NO.   29, LENGTH =   366.0000    
                            -----------------------------------------------

                              NUMBER OF TIME STEPS =    12

                               MULTIPLIER FOR DELT =     1.000

                            INITIAL TIME STEP SIZE =   30.50000    

   1490 WELLS

 REUSING SURF FROM LAST STRESS PERIOD

 REUSING EVTR FROM LAST STRESS PERIOD

 REUSING EXDP FROM LAST STRESS PERIOD



                           RECHARGE
 READING ON UNIT   16 WITH FORMAT: (15F5.0)            


     63 TIME-VARIANT SPECIFIED-HEAD CELLS
 
 SOLVING FOR HEAD 
                                                   Max.-Head-Change                         Max.-Flux-Residual
  Residual-Control   Outer-Iter.   Inner-Iter.     Column Row Layer    Maximum-Head-Change  Column Row Layer    Maximum-Flux-Residual          L2-NORM 
          0                 1          12            62   94     3      -0.4827032703E+02      32   21    2         0.5194230588E+06      0.1421410907E+07
          0                 2          10            65    2     2      -0.3019304396E+02      59   87    3         0.2007242828E+06      0.2685439032E+06
          0                 3           7            65    2     2       0.9543942949E+00      31   26    2         0.1984135218E+04      0.3264932220E+04
          0                 4           5            65    2     2       0.5581693866E-01      65    2    2         0.2484651868E+02      0.3474078234E+02
          0                 5           4            65    2     2       0.3260445857E-02      65    2    3         0.2208110563E+01      0.3431572065E+01

    ------------------------------------------------
       NWT REQUIRED            5 OUTER ITERATIONS 
       AND A TOTAL OF         38 INNER ITERATIONS.
    ------------------------------------------------

 NO OUTPUT CONTROL FOR STRESS PERIOD   29   TIME STEP    1
 
 SOLVING FOR HEAD 
                                                   Max.-Head-Change                         Max.-Flux-Residual
  Residual-Control   Outer-Iter.   Inner-Iter.     Column Row Layer    Maximum-Head-Change  Column Row Layer    Maximum-Flux-Residual          L2-NORM 
          0                 1          11            65    2     2      -0.8058279835E+02      32   21    2         0.1830241305E+06      0.8551422420E+06
          0                 2          10            66    1     2      -0.5804020838E+02      31   26    2         0.2522066216E+05      0.9789619940E+05
          0                 3           7            66    1     2       0.1577186303E+01      28   22    1        -0.3997760949E+04      0.5166064718E+04
          0                 4           5            66    1     2       0.9922578186E-01      28   22    1        -0.3602485593E+03      0.3640415076E+03
          0                 5           4            66    1     2       0.6235604171E-02      28   22    1        -0.3238998716E+02      0.3274518174E+02

    ------------------------------------------------
       NWT REQUIRED            5 OUTER ITERATIONS 
       AND A TOTAL OF         37 INNER ITERATIONS.
    ------------------------------------------------

 NO OUTPUT CONTROL FOR STRESS PERIOD   29   TIME STEP    2
 
 SOLVING FOR HEAD 
                                                   Max.-Head-Change                         Max.-Flux-Residual
  Residual-Control   Outer-Iter.   Inner-Iter.     Column Row Layer    Maximum-Head-Change  Column Row Layer    Maximum-Flux-Residual          L2-NORM 
          0                 1          11            66    1     2      -0.1766877851E+02      59   87    2        -0.1408787838E+06      0.7127028662E+06
          0                 2          10            28   26     1      -0.5869669659E+00      28   26    1        -0.1791234936E+05      0.7926116437E+05
          0                 3           6            28   26     1       0.5265982923E-01      28   26    1         0.1767579383E+04      0.2881740628E+04
          0                 4           3            66    1     2       0.1939456349E-02      59   63    1        -0.2104519844E+01      0.3936624658E+01

    ------------------------------------------------
       NWT REQUIRED            4 OUTER ITERATIONS 
       AND A TOTAL OF         30 INNER ITERATIONS.
    ------------------------------------------------

 NO OUTPUT CONTROL FOR STRESS PERIOD   29   TIME STEP    3
 
 SOLVING FOR HEAD 
                                                   Max.-Head-Change                         Max.-Flux-Residual
  Residual-Control   Outer-Iter.   Inner-Iter.     Column Row Layer    Maximum-Head-Change  Column Row Layer    Maximum-Flux-Residual          L2-NORM 
          0                 1          11            59   87     2      -0.5038545795E+01      59   87    2        -0.1193989513E+06      0.6480989527E+06
          0                 2          10            36   32     1      -0.9215514209E+00      59   87    2         0.1140636055E+05      0.6717375245E+05
          0                 3           6            36   32     1       0.9745094599E-01      27   28    1         0.9655251508E+03      0.1552712166E+04
          0                 4           3            36   32     1       0.5094083137E-03      36   31    1        -0.9954312824E+01      0.1127241959E+02

    ------------------------------------------------
       NWT REQUIRED            4 OUTER ITERATIONS 
       AND A TOTAL OF         30 INNER ITERATIONS.
    ------------------------------------------------

 NO OUTPUT CONTROL FOR STRESS PERIOD   29   TIME STEP    4
 
 SOLVING FOR HEAD 
                                                   Max.-Head-Change                         Max.-Flux-Residual
  Residual-Control   Outer-Iter.   Inner-Iter.     Column Row Layer    Maximum-Head-Change  Column Row Layer    Maximum-Flux-Residual          L2-NORM 
          0                 1          11            59   87     2      -0.4560240746E+01      59   87    2        -0.1051139431E+06      0.6102722466E+06
          0                 2          10            65    6     2      -0.2837840658E+02      65    6    2        -0.1603588184E+05      0.6763503025E+05
          0                 3           6            65    6     2       0.2031426753E+01      65    6    3        -0.1557554443E+04      0.3069068325E+04
          0                 4           3            65    6     2       0.7739510060E-01      65    6    2         0.5140432105E+02      0.6163750612E+02
          0                 5           2            65    6     2       0.2937474842E-02      65    6    3         0.4204560369E+01      0.5369549254E+01

    ------------------------------------------------
       NWT REQUIRED            5 OUTER ITERATIONS 
       AND A TOTAL OF         32 INNER ITERATIONS.
    ------------------------------------------------

 NO OUTPUT CONTROL FOR STRESS PERIOD   29   TIME STEP    5
 
 SOLVING FOR HEAD 
                                                   Max.-Head-Change                         Max.-Flux-Residual
  Residual-Control   Outer-Iter.   Inner-Iter.     Column Row Layer    Maximum-Head-Change  Column Row Layer    Maximum-Flux-Residual          L2-NORM 
          0                 1          11            65    6     2      -0.1165262765E+02      59   87    2        -0.9510450771E+05      0.5832484176E+06
          0                 2          10            65    3     2      -0.2378314687E+02      28   24    2         0.2192951312E+05      0.6636293558E+05
          0                 3           7            65    3     2       0.1372803235E+01      59   87    2         0.4195358153E+04      0.6033925218E+04
          0                 4           5            65    3     2       0.7010761326E-01      24   14    1        -0.2684470939E+03      0.3203934183E+03
          0                 5           4            65    3     2       0.3569217412E-02      24   14    1        -0.2413522240E+02      0.2836599052E+02

    ------------------------------------------------
       NWT REQUIRED            5 OUTER ITERATIONS 
       AND A TOTAL OF         37 INNER ITERATIONS.
    ------------------------------------------------

 NO OUTPUT CONTROL FOR STRESS PERIOD   29   TIME STEP    6
 
 SOLVING FOR HEAD 
                                                   Max.-Head-Change                         Max.-Flux-Residual
  Residual-Control   Outer-Iter.   Inner-Iter.     Column Row Layer    Maximum-Head-Change  Column Row Layer    Maximum-Flux-Residual          L2-NORM 
          0                 1          11            59   87     2      -0.1338158988E+02      59   87    3        -0.7499380076E+05      0.5625157386E+06
          0                 2          10            92   77     2      -0.1971965829E+02      16    3    2         0.7651615086E+04      0.5813018842E+05
          0                 3           6            65    5     2       0.3590106640E+00      16    3    1        -0.3648428281E+04      0.3858391031E+04
          0                 4           4            65    5     2       0.1734359635E-01      16    3    1        -0.3286855682E+03      0.3289267751E+03
          0                 5           3            92   77     2       0.1171420234E-02      16    3    1        -0.2955149075E+02      0.2956654897E+02

    ------------------------------------------------
       NWT REQUIRED            5 OUTER ITERATIONS 
       AND A TOTAL OF         34 INNER ITERATIONS.
    ------------------------------------------------

 NO OUTPUT CONTROL FOR STRESS PERIOD   29   TIME STEP    7
 
 SOLVING FOR HEAD 
                                                   Max.-Head-Change                         Max.-Flux-Residual
  Residual-Control   Outer-Iter.   Inner-Iter.     Column Row Layer    Maximum-Head-Change  Column Row Layer    Maximum-Flux-Residual          L2-NORM 
          0                 1          11            92   77     2      -0.5246817831E+02      59   87    3        -0.1083175618E+06      0.5515040042E+06
          0                 2          10            92   77     2       0.1000074426E+02      32   28    2         0.1527092441E+05      0.6268353311E+05
          0                 3           7            92   77     2       0.3858255338E+00      60   82    1        -0.3734870440E+04      0.5591059234E+04
          0                 4           6            92   77     2       0.1457938398E-01      22   41    3         0.1947608659E+04      0.2000283375E+04
          0                 5           5            60   82     1      -0.5696081162E-03      22   41    3         0.1944686555E+04      0.1945127039E+04
          0                 6           5            22   41     3       0.5894407337E-04      22   41    3         0.1941773456E+04      0.1941785553E+04
          0                 7           5            22   41     3       0.5886249085E-04      22   41    3         0.1938878339E+04      0.1938886963E+04
          0                 8           5            22   41     3       0.5878143163E-04      22   41    3         0.1936001052E+04      0.1936009636E+04
          0                 9           5            22   41     3       0.5870089337E-04      22   41    3         0.1933141559E+04      0.1933150130E+04
          0                10           5            22   41     3       0.5862087465E-04      22   41    3         0.1930299779E+04      0.1930308337E+04
                                                   Max.-Head-Change                         Max.-Flux-Residual
  Residual-Control   Outer-Iter.   Inner-Iter.     Column Row Layer    Maximum-Head-Change  Column Row Layer    Maximum-Flux-Residual          L2-NORM 
          0                11           5            22   41     3       0.5854137130E-04      22   41    3         0.1927475629E+04      0.1927484175E+04
          0                12           5            22   41     3       0.5846238279E-04      22   41    3         0.1924669029E+04      0.1924677563E+04
          0                13           5            22   41     3       0.5838390633E-04      22   41    3         0.1921879899E+04      0.1921888421E+04
          0                14           5            22   41     3       0.5830594003E-04      22   41    3         0.1919108158E+04      0.1919116668E+04
          0                15           5            22   41     3       0.5822848086E-04      22   41    3         0.1916353729E+04      0.1916362226E+04
          0                16           5            22   41     3       0.5815152715E-04      22   41    3         0.1913616531E+04      0.1913625016E+04
          0                17           5            22   41     3       0.5807507632E-04      22   41    3         0.1910896488E+04      0.1910904962E+04
          0                18           5            22   41     3       0.5799912603E-04      22   41    3         0.1908193523E+04      0.1908201985E+04
          0                19           5            22   41     3       0.5792367553E-04      22   41    3         0.1905507560E+04      0.1905516009E+04
          0                20           5            22   41     3       0.5784872108E-04      22   41    3         0.1902838521E+04      0.1902846959E+04
                                                   Max.-Head-Change                         Max.-Flux-Residual
  Residual-Control   Outer-Iter.   Inner-Iter.     Column Row Layer    Maximum-Head-Change  Column Row Layer    Maximum-Flux-Residual          L2-NORM 
          0                21           5            22   41     3       0.5777426103E-04      22   41    3         0.1900186333E+04      0.1900194760E+04
          0                22           5            22   41     3       0.5770029371E-04      22   41    3         0.1897550921E+04      0.1897559336E+04
          0                23           5            22   41     3       0.5762681698E-04      22   41    3         0.1894932210E+04      0.1894940614E+04
          0                24           5            22   41     3       0.5755382827E-04      22   41    3         0.1892330128E+04      0.1892338520E+04
          0                25           5            22   41     3       0.5748132568E-04      22   41    3         0.1889744602E+04      0.1889752983E+04
          0                26           5            22   41     3       0.5740930775E-04      22   41    3         0.1887175560E+04      0.1887183929E+04
          0                27           5            22   41     3       0.5733777213E-04      22   41    3         0.1884622929E+04      0.1884631288E+04
          0                28           5            22   41     3       0.5726671602E-04      22   41    3         0.1882086641E+04      0.1882094988E+04
          0                29           5            22   41     3       0.5719613863E-04      22   41    3         0.1879566623E+04      0.1879574959E+04
          0                30           5            22   41     3       0.5712603763E-04      22   41    3         0.1877062806E+04      0.1877071131E+04
                                                   Max.-Head-Change                         Max.-Flux-Residual
  Residual-Control   Outer-Iter.   Inner-Iter.     Column Row Layer    Maximum-Head-Change  Column Row Layer    Maximum-Flux-Residual          L2-NORM 
          0                31           5            22   41     3       0.5705641063E-04      22   41    3         0.1874575122E+04      0.1874583436E+04
          0                32           5            22   41     3       0.5698725642E-04      22   41    3         0.1872103501E+04      0.1872111804E+04
          0                33           5            22   41     3       0.5691857287E-04      22   41    3         0.1869647876E+04      0.1869656169E+04
          0                34           5            22   41     3       0.5685035784E-04      22   41    3         0.1867208179E+04      0.1867216461E+04
          0                35           5            22   41     3       0.5678260964E-04      22   41    3         0.1864784343E+04      0.1864792615E+04
          0                36           5            22   41     3       0.5671532638E-04      22   41    3         0.1862376303E+04      0.1862384564E+04
          0                37           5            22   41     3       0.5664850568E-04      22   41    3         0.1859983992E+04      0.1859992242E+04
          0                38           5            22   41     3       0.5658214654E-04      22   41    3         0.1857607345E+04      0.1857615585E+04
          0                39           5            22   41     3       0.5651624683E-04      22   41    3         0.1855246298E+04      0.1855254528E+04
          0                40           5            22   41     3       0.5645080464E-04      22   41    3         0.1852900786E+04      0.1852909005E+04
                                                   Max.-Head-Change                         Max.-Flux-Residual
  Residual-Control   Outer-Iter.   Inner-Iter.     Column Row Layer    Maximum-Head-Change  Column Row Layer    Maximum-Flux-Residual          L2-NORM 
          0                41           5            22   41     3       0.5638581827E-04      22   41    3         0.1850570746E+04      0.1850578955E+04
          0                42           5            22   41     3       0.5632128627E-04      22   41    3         0.1848256115E+04      0.1848264314E+04
          0                43           5            22   41     3       0.5625720649E-04      22   41    3         0.1845956831E+04      0.1845965020E+04
          0                44           8            22   41     3       0.4562247856E-01      22   41    3         0.1843671778E+04      0.1843679957E+04
          0                45           5            22   41     3      -0.1720742263E-03      22   41    3        -0.7745845467E+01      0.1053436786E+02

    ------------------------------------------------
       NWT REQUIRED           45 OUTER ITERATIONS 
       AND A TOTAL OF        242 INNER ITERATIONS.
    ------------------------------------------------

 NO OUTPUT CONTROL FOR STRESS PERIOD   29   TIME STEP    8
 
 SOLVING FOR HEAD 
                                                   Max.-Head-Change                         Max.-Flux-Residual
  Residual-Control   Outer-Iter.   Inner-Iter.     Column Row Layer    Maximum-Head-Change  Column Row Layer    Maximum-Flux-Residual          L2-NORM 
          0                 1          11            59   87     3      -0.3757114780E+01      59   87    3        -0.9123238924E+05      0.5378995105E+06
          0                 2          10            69   21     1      -0.2194232100E+01      59   86    3         0.4501231720E+05      0.7274465993E+05
          0                 3           7            69   21     1       0.1874274701E+00      23   11    1        -0.2800215248E+04      0.3333661563E+04
          0                 4           5            23   11     1      -0.4374745266E-02      23   11    1        -0.2522000620E+03      0.2522836326E+03

    ------------------------------------------------
       NWT REQUIRED            4 OUTER ITERATIONS 
       AND A TOTAL OF         33 INNER ITERATIONS.
    ------------------------------------------------

 NO OUTPUT CONTROL FOR STRESS PERIOD   29   TIME STEP    9
 
 SOLVING FOR HEAD 
                                                   Max.-Head-Change                         Max.-Flux-Residual
  Residual-Control   Outer-Iter.   Inner-Iter.     Column Row Layer    Maximum-Head-Change  Column Row Layer    Maximum-Flux-Residual          L2-NORM 
          0                 1          11            69   21     1      -0.3898546296E+01      59   87    3        -0.7658350542E+05      0.5257652220E+06
          0                 2          10            28   23     1      -0.3368235063E+00      25   58    3        -0.1479484496E+05      0.5774875473E+05
          0                 3           7            18   10     1      -0.3425563285E-01      18   10    1        -0.3157497075E+04      0.4184415087E+04
          0                 4           5            18   10     1      -0.3085120397E-02      18   10    1        -0.2843151658E+03      0.3569946899E+03

    ------------------------------------------------
       NWT REQUIRED            4 OUTER ITERATIONS 
       AND A TOTAL OF         33 INNER ITERATIONS.
    ------------------------------------------------

 NO OUTPUT CONTROL FOR STRESS PERIOD   29   TIME STEP   10
 
 SOLVING FOR HEAD 
                                                   Max.-Head-Change                         Max.-Flux-Residual
  Residual-Control   Outer-Iter.   Inner-Iter.     Column Row Layer    Maximum-Head-Change  Column Row Layer    Maximum-Flux-Residual          L2-NORM 
          0                 1          11            59   87     2      -0.2774707342E+01      59   87    3        -0.6496634625E+05      0.5172100593E+06
          0                 2          10            23   46     2      -0.2518550806E+01      34   26    2         0.1658519514E+05      0.5753244660E+05
          0                 3           6            23   46     2       0.2139476501E+00      18   10    1         0.7892053502E+03      0.1241433680E+04
          0                 4           4            23   46     2       0.1210391164E-02      23   46    2         0.3446059992E+01      0.4171740349E+01

    ------------------------------------------------
       NWT REQUIRED            4 OUTER ITERATIONS 
       AND A TOTAL OF         31 INNER ITERATIONS.
    ------------------------------------------------

 NO OUTPUT CONTROL FOR STRESS PERIOD   29   TIME STEP   11
 
 SOLVING FOR HEAD 
                                                   Max.-Head-Change                         Max.-Flux-Residual
  Residual-Control   Outer-Iter.   Inner-Iter.     Column Row Layer    Maximum-Head-Change  Column Row Layer    Maximum-Flux-Residual          L2-NORM 
          0                 1          11            59   87     2      -0.2542262722E+01      59   87    3        -0.5693541382E+05      0.5090661978E+06
          0                 2          10            22   44     2      -0.8934308441E+00      73   14    2         0.1319469963E+05      0.5729354055E+05
          0                 3           7            22   44     2       0.7509243631E-01      27   21    1        -0.5273033545E+04      0.5853114783E+04
          0                 4           6            27   21     1      -0.4996778129E-02      27   21    1        -0.4752248138E+03      0.5083541518E+03

    ------------------------------------------------
       NWT REQUIRED            4 OUTER ITERATIONS 
       AND A TOTAL OF         34 INNER ITERATIONS.
    ------------------------------------------------

 OUTPUT CONTROL FOR STRESS PERIOD   29   TIME STEP   12
    SAVE BUDGET
 UBDSV1 SAVING "         STORAGE" ON UNIT  39 AT TIME STEP 12, STRESS PERIOD  29
 UBDSV2 SAVING "   CONSTANT HEAD" ON UNIT  39 AT TIME STEP 12, STRESS PERIOD  29
 UBDSV1 SAVING "FLOW RIGHT FACE " ON UNIT  39 AT TIME STEP 12, STRESS PERIOD  29
 UBDSV1 SAVING "FLOW FRONT FACE " ON UNIT  39 AT TIME STEP 12, STRESS PERIOD  29
 UBDSV1 SAVING "FLOW LOWER FACE " ON UNIT  39 AT TIME STEP 12, STRESS PERIOD  29
 UBDSV4 SAVING "           WELLS" ON UNIT  39 AT TIME STEP 12, STRESS PERIOD  29
 UBDSV3 SAVING "              ET" ON UNIT  39 AT TIME STEP 12, STRESS PERIOD  29
 UBDSV3 SAVING "        RECHARGE" ON UNIT  39 AT TIME STEP 12, STRESS PERIOD  29

 INTERPOLATION FOR HEAD OBS# 8210, ID 2355-30-1    CHANGED BECAUSE AT LEAST ONE
 NEIGHBORING CELL REQUIRED FOR INTERPOLATION IS DRY OR INACTIVE (OBS2BAS7SE)

 INTERPOLATION FOR HEAD OBS# 8232, ID 1427-30-11   CHANGED BECAUSE AT LEAST ONE
 NEIGHBORING CELL REQUIRED FOR INTERPOLATION IS DRY OR INACTIVE (OBS2BAS7SE)
1
  VOLUMETRIC BUDGET FOR ENTIRE MODEL AT END OF TIME STEP   12, STRESS PERIOD  29
  ------------------------------------------------------------------------------

     CUMULATIVE VOLUMES      L**3       RATES FOR THIS TIME STEP      L**3/T
     ------------------                 ------------------------

           IN:                                      IN:
           ---                                      ---
             STORAGE =171455315968.0000               STORAGE =    24764612.0000
       CONSTANT HEAD = 14140759040.0000         CONSTANT HEAD =     1632535.2500
               WELLS = 12983199744.0000                 WELLS =     1225642.0000
                  ET =           0.0000                    ET =           0.0000
            RECHARGE =173939916800.0000              RECHARGE =    16581641.0000

            TOTAL IN =372519206912.0000              TOTAL IN =    44204432.0000

          OUT:                                     OUT:
          ----                                     ----
             STORAGE = 22829228032.0000               STORAGE =     1299107.3750
       CONSTANT HEAD = 38248058880.0000         CONSTANT HEAD =     3283803.0000
               WELLS =300966150144.0000                 WELLS =    38673048.0000
                  ET = 10475718656.0000                    ET =      948530.7500
            RECHARGE =           0.0000              RECHARGE =           0.0000

           TOTAL OUT =372519174144.0000             TOTAL OUT =    44204492.0000

            IN - OUT =       32768.0000              IN - OUT =         -60.0000

 PERCENT DISCREPANCY =           0.00     PERCENT DISCREPANCY =          -0.00






         TIME SUMMARY AT END OF TIME STEP   12 IN STRESS PERIOD   29
                    SECONDS     MINUTES      HOURS       DAYS        YEARS
                    -----------------------------------------------------------
   TIME STEP LENGTH 2.63520E+06  43920.      732.00      30.500     8.35044E-02
 STRESS PERIOD TIME 3.16224E+07 5.27040E+05  8784.0      366.00      1.0021    
         TOTAL TIME 9.15236E+08 1.52539E+07 2.54232E+05  10593.      29.002    
1
1
                            STRESS PERIOD NO.   30, LENGTH =   365.0000    
                            -----------------------------------------------

                              NUMBER OF TIME STEPS =    12

                               MULTIPLIER FOR DELT =     1.000

                            INITIAL TIME STEP SIZE =   30.41667    

   1520 WELLS

 REUSING SURF FROM LAST STRESS PERIOD

 REUSING EVTR FROM LAST STRESS PERIOD

 REUSING EXDP FROM LAST STRESS PERIOD



                           RECHARGE
 READING ON UNIT   16 WITH FORMAT: (15F5.0)            


     63 TIME-VARIANT SPECIFIED-HEAD CELLS
 
 SOLVING FOR HEAD 
                                                   Max.-Head-Change                         Max.-Flux-Residual
  Residual-Control   Outer-Iter.   Inner-Iter.     Column Row Layer    Maximum-Head-Change  Column Row Layer    Maximum-Flux-Residual          L2-NORM 
          0                 1          12            23   46     2       0.4596486827E+02      32   21    2        -0.4880957506E+06      0.1151892729E+07
          0                 2          10            23   46     2      -0.3076810746E+02      23   46    2        -0.9033084562E+06      0.9177251297E+06
          0                 3           9            23   47     2       0.5263232685E+01      23   46    2        -0.1172538154E+06      0.1312629575E+06
          0                 4           8            23   47     2       0.9530291455E+00      23   46    2        -0.6579005493E+04      0.1006407092E+05
          0                 5           7            23   47     2       0.9269877175E-01      23   47    2         0.3794957819E+03      0.7210922872E+03
          0                 6           6            23   47     2       0.8693642688E-02      23   47    2         0.3552619244E+02      0.6618083862E+02

    ------------------------------------------------
       NWT REQUIRED            6 OUTER ITERATIONS 
       AND A TOTAL OF         52 INNER ITERATIONS.
    ------------------------------------------------

 NO OUTPUT CONTROL FOR STRESS PERIOD   30   TIME STEP    1
 
 SOLVING FOR HEAD 
                                                   Max.-Head-Change                         Max.-Flux-Residual
  Residual-Control   Outer-Iter.   Inner-Iter.     Column Row Layer    Maximum-Head-Change  Column Row Layer    Maximum-Flux-Residual          L2-NORM 
          0                 1          11            58   89     3      -0.5802790530E+01      32   21    2        -0.1953277102E+06      0.7038488851E+06
          0                 2          10            66    4     2      -0.3694750883E+01      55   82    2        -0.2885378152E+05      0.8064392649E+05
          0                 3           6            59   86     2       0.1183992485E+00      66  101    1        -0.1746165256E+04      0.2940170315E+04
          0                 4           4            66    4     2       0.6877727908E-02      66  101    1        -0.1572876923E+03      0.1574541588E+03

    ------------------------------------------------
       NWT REQUIRED            4 OUTER ITERATIONS 
       AND A TOTAL OF         31 INNER ITERATIONS.
    ------------------------------------------------

 NO OUTPUT CONTROL FOR STRESS PERIOD   30   TIME STEP    2
 
 SOLVING FOR HEAD 
                                                   Max.-Head-Change                         Max.-Flux-Residual
  Residual-Control   Outer-Iter.   Inner-Iter.     Column Row Layer    Maximum-Head-Change  Column Row Layer    Maximum-Flux-Residual          L2-NORM 
          0                 1          11            58   89     3      -0.5114421395E+01      58   89    3        -0.1215151942E+06      0.6208160770E+06
          0                 2          10            66  101     1      -0.3104102893E+01      58   89    3         0.1171499907E+05      0.6494596486E+05
          0                 3           6            66  101     1       0.2463853031E+00      24   22    1        -0.1546100212E+04      0.1971845317E+04
          0                 4           5            66  101     1       0.2600584117E-02      24   22    1        -0.1392019333E+03      0.1519352947E+03

    ------------------------------------------------
       NWT REQUIRED            4 OUTER ITERATIONS 
       AND A TOTAL OF         32 INNER ITERATIONS.
    ------------------------------------------------

 NO OUTPUT CONTROL FOR STRESS PERIOD   30   TIME STEP    3
 
 SOLVING FOR HEAD 
                                                   Max.-Head-Change                         Max.-Flux-Residual
  Residual-Control   Outer-Iter.   Inner-Iter.     Column Row Layer    Maximum-Head-Change  Column Row Layer    Maximum-Flux-Residual          L2-NORM 
          0                 1          11            58   89     3      -0.4563455440E+01      58   89    3        -0.1070516285E+06      0.5845821460E+06
          0                 2          10            88   67     1      -0.1088631333E+02      55   83    2        -0.2021147181E+05      0.6797970591E+05
          0                 3           6            88   67     1       0.6676200065E+00      24   22    1         0.9188987078E+03      0.1761959072E+04
          0                 4           3            88   67     1       0.1966373975E-01      88   67    1         0.2627189357E+02      0.2631818034E+02
          0                 5           2            88   67     1       0.5773592553E-03      88   67    1         0.7713097129E+00      0.7847778048E+00

    ------------------------------------------------
       NWT REQUIRED            5 OUTER ITERATIONS 
       AND A TOTAL OF         32 INNER ITERATIONS.
    ------------------------------------------------

 NO OUTPUT CONTROL FOR STRESS PERIOD   30   TIME STEP    4
 
 SOLVING FOR HEAD 
                                                   Max.-Head-Change                         Max.-Flux-Residual
  Residual-Control   Outer-Iter.   Inner-Iter.     Column Row Layer    Maximum-Head-Change  Column Row Layer    Maximum-Flux-Residual          L2-NORM 
          0                 1          11            88   67     1      -0.4961686247E+01      58   89    3        -0.9476317400E+05      0.5634607795E+06
          0                 2          10            21   40     2      -0.3372022975E+01      58   89    3         0.9292567777E+04      0.5943084769E+05
          0                 3           7            21   40     2       0.2676923859E+00      23   21    1        -0.4826851517E+04      0.5785087654E+04
          0                 4           6            23   21     1      -0.4419442970E-02      23   21    1        -0.4352443847E+03      0.5126679860E+03

    ------------------------------------------------
       NWT REQUIRED            4 OUTER ITERATIONS 
       AND A TOTAL OF         34 INNER ITERATIONS.
    ------------------------------------------------

 NO OUTPUT CONTROL FOR STRESS PERIOD   30   TIME STEP    5
 
 SOLVING FOR HEAD 
                                                   Max.-Head-Change                         Max.-Flux-Residual
  Residual-Control   Outer-Iter.   Inner-Iter.     Column Row Layer    Maximum-Head-Change  Column Row Layer    Maximum-Flux-Residual          L2-NORM 
          0                 1          11            58   89     3      -0.3549781802E+01      58   89    3        -0.8330888401E+05      0.5487110045E+06
          0                 2          10            58   89     3       0.3151618998E+00      29   28    2         0.1035130914E+05      0.5877916483E+05
          0                 3           6            21    6     1       0.2706669713E-01      23   21    1         0.9706477997E+03      0.1803652878E+04
          0                 4           3            92   77     2       0.6375176489E-04      21    6    1         0.7554844469E+00      0.1393151606E+01

    ------------------------------------------------
       NWT REQUIRED            4 OUTER ITERATIONS 
       AND A TOTAL OF         30 INNER ITERATIONS.
    ------------------------------------------------

 NO OUTPUT CONTROL FOR STRESS PERIOD   30   TIME STEP    6
 
 SOLVING FOR HEAD 
                                                   Max.-Head-Change                         Max.-Flux-Residual
  Residual-Control   Outer-Iter.   Inner-Iter.     Column Row Layer    Maximum-Head-Change  Column Row Layer    Maximum-Flux-Residual          L2-NORM 
          0                 1          11            19   37     2      -0.3323622548E+01      58   89    3        -0.7418681796E+05      0.5384984273E+06
          0                 2          10            22   43     2      -0.1563988303E+01      26   20    2         0.1303149654E+05      0.5824366404E+05
          0                 3           6            22   43     2       0.1270640465E+00      29   28    1         0.9131334887E+03      0.1132671830E+04
          0                 4           4            22   43     2       0.1251682400E-02      32   26    2         0.5955176420E+01      0.6625647549E+01

    ------------------------------------------------
       NWT REQUIRED            4 OUTER ITERATIONS 
       AND A TOTAL OF         31 INNER ITERATIONS.
    ------------------------------------------------

 NO OUTPUT CONTROL FOR STRESS PERIOD   30   TIME STEP    7
 
 SOLVING FOR HEAD 
                                                   Max.-Head-Change                         Max.-Flux-Residual
  Residual-Control   Outer-Iter.   Inner-Iter.     Column Row Layer    Maximum-Head-Change  Column Row Layer    Maximum-Flux-Residual          L2-NORM 
          0                 1          11            22   43     2      -0.2929918256E+01      58   89    3        -0.6683569720E+05      0.5305661671E+06
          0                 2          10            22    5     1      -0.4075555387E+00      32   26    2        -0.4917705958E+05      0.7592116781E+05
          0                 3           6            22    5     1       0.3604602211E-01      32   26    2         0.4906879944E+04      0.5340313566E+04
          0                 4           3            22    5     1       0.9043051907E-04      58   88    3        -0.2763979629E+01      0.3375360862E+01

    ------------------------------------------------
       NWT REQUIRED            4 OUTER ITERATIONS 
       AND A TOTAL OF         30 INNER ITERATIONS.
    ------------------------------------------------

 NO OUTPUT CONTROL FOR STRESS PERIOD   30   TIME STEP    8
 
 SOLVING FOR HEAD 
                                                   Max.-Head-Change                         Max.-Flux-Residual
  Residual-Control   Outer-Iter.   Inner-Iter.     Column Row Layer    Maximum-Head-Change  Column Row Layer    Maximum-Flux-Residual          L2-NORM 
          0                 1          11            58   89     3      -0.2676309594E+01      58   89    3        -0.6084494683E+05      0.5240211870E+06
          0                 2          10            35   17     2      -0.2985543250E+01      25   22    2         0.1788405383E+05      0.5672832042E+05
          0                 3           7            35   17     2       0.2251885246E+00      36   24    1         0.6063331291E+03      0.9461611420E+03
          0                 4           4            35   17     2       0.3478212143E-02      35   17    2         0.6212025404E+01      0.9209961152E+01

    ------------------------------------------------
       NWT REQUIRED            4 OUTER ITERATIONS 
       AND A TOTAL OF         32 INNER ITERATIONS.
    ------------------------------------------------

 NO OUTPUT CONTROL FOR STRESS PERIOD   30   TIME STEP    9
 
 SOLVING FOR HEAD 
                                                   Max.-Head-Change                         Max.-Flux-Residual
  Residual-Control   Outer-Iter.   Inner-Iter.     Column Row Layer    Maximum-Head-Change  Column Row Layer    Maximum-Flux-Residual          L2-NORM 
          0                 1          11            58   89     3      -0.2440437159E+01      58   89    3        -0.5542708504E+05      0.5189239164E+06
          0                 2          10            33   27     1      -0.4042924376E+00      33   27    1        -0.1065134024E+05      0.5444634557E+05
          0                 3           7            15   26     2      -0.5105892428E-01      15   26    2        -0.2151525846E+04      0.2819813596E+04
          0                 4           5            15   26     2      -0.4605446402E-02      15   26    2        -0.1939735167E+03      0.2302364413E+03

    ------------------------------------------------
       NWT REQUIRED            4 OUTER ITERATIONS 
       AND A TOTAL OF         33 INNER ITERATIONS.
    ------------------------------------------------

 NO OUTPUT CONTROL FOR STRESS PERIOD   30   TIME STEP   10
 
 SOLVING FOR HEAD 
                                                   Max.-Head-Change                         Max.-Flux-Residual
  Residual-Control   Outer-Iter.   Inner-Iter.     Column Row Layer    Maximum-Head-Change  Column Row Layer    Maximum-Flux-Residual          L2-NORM 
          0                 1          11            58   89     3      -0.2264386914E+01      58   89    3        -0.5097072988E+05      0.5142266999E+06
          0                 2          10            70   19     1      -0.1717659228E+01      70   19    1        -0.1284830657E+05      0.5695876665E+05
          0                 3           6            70   19     1       0.1497171821E+00      21    5    1        -0.1403272220E+04      0.2786737869E+04
          0                 4           4            21    5     1      -0.2931583112E-02      21    5    1        -0.1263691963E+03      0.1456016080E+03

    ------------------------------------------------
       NWT REQUIRED            4 OUTER ITERATIONS 
       AND A TOTAL OF         31 INNER ITERATIONS.
    ------------------------------------------------

 NO OUTPUT CONTROL FOR STRESS PERIOD   30   TIME STEP   11
 
 SOLVING FOR HEAD 
                                                   Max.-Head-Change                         Max.-Flux-Residual
  Residual-Control   Outer-Iter.   Inner-Iter.     Column Row Layer    Maximum-Head-Change  Column Row Layer    Maximum-Flux-Residual          L2-NORM 
          0                 1          11            22   42     2      -0.2528276790E+01      58   89    3        -0.4729058126E+05      0.5111815348E+06
          0                 2          10            66   45     1      -0.5633024022E+00      26   22    2         0.8599432046E+04      0.5342296049E+05
          0                 3           6            66   45     1       0.1291656951E+00      66   45    1         0.2016008226E+04      0.2742725943E+04
          0                 4           3            66   46     1      -0.1353567146E-02      66   46    1        -0.1243649397E+03      0.1402860481E+03

    ------------------------------------------------
       NWT REQUIRED            4 OUTER ITERATIONS 
       AND A TOTAL OF         30 INNER ITERATIONS.
    ------------------------------------------------

 OUTPUT CONTROL FOR STRESS PERIOD   30   TIME STEP   12
    SAVE BUDGET
 UBDSV1 SAVING "         STORAGE" ON UNIT  39 AT TIME STEP 12, STRESS PERIOD  30
 UBDSV2 SAVING "   CONSTANT HEAD" ON UNIT  39 AT TIME STEP 12, STRESS PERIOD  30
 UBDSV1 SAVING "FLOW RIGHT FACE " ON UNIT  39 AT TIME STEP 12, STRESS PERIOD  30
 UBDSV1 SAVING "FLOW FRONT FACE " ON UNIT  39 AT TIME STEP 12, STRESS PERIOD  30
 UBDSV1 SAVING "FLOW LOWER FACE " ON UNIT  39 AT TIME STEP 12, STRESS PERIOD  30
 UBDSV4 SAVING "           WELLS" ON UNIT  39 AT TIME STEP 12, STRESS PERIOD  30
 UBDSV3 SAVING "              ET" ON UNIT  39 AT TIME STEP 12, STRESS PERIOD  30
 UBDSV3 SAVING "        RECHARGE" ON UNIT  39 AT TIME STEP 12, STRESS PERIOD  30

 INTERPOLATION FOR HEAD OBS# 8283, ID 2927-31-29   CHANGED BECAUSE AT LEAST ONE
 NEIGHBORING CELL REQUIRED FOR INTERPOLATION IS DRY OR INACTIVE (OBS2BAS7SE)

 INTERPOLATION FOR HEAD OBS# 8288, ID 2615-31-1    CHANGED BECAUSE AT LEAST ONE
 NEIGHBORING CELL REQUIRED FOR INTERPOLATION IS DRY OR INACTIVE (OBS2BAS7SE)
1
  VOLUMETRIC BUDGET FOR ENTIRE MODEL AT END OF TIME STEP   12, STRESS PERIOD  30
  ------------------------------------------------------------------------------

     CUMULATIVE VOLUMES      L**3       RATES FOR THIS TIME STEP      L**3/T
     ------------------                 ------------------------

           IN:                                      IN:
           ---                                      ---
             STORAGE =181411201024.0000               STORAGE =    26711554.0000
       CONSTANT HEAD = 14722955264.0000         CONSTANT HEAD =     1597655.1250
               WELLS = 13430556672.0000                 WELLS =     1225642.0000
                  ET =           0.0000                    ET =           0.0000
            RECHARGE =180062683136.0000              RECHARGE =    16774495.0000

            TOTAL IN =389627379712.0000              TOTAL IN =    46309344.0000

          OUT:                                     OUT:
          ----                                     ----
             STORAGE = 23266600960.0000               STORAGE =      764605.8125
       CONSTANT HEAD = 39426289664.0000         CONSTANT HEAD =     3186717.7500
               WELLS =316173778944.0000                 WELLS =    41665260.0000
                  ET = 10760414208.0000                    ET =      692768.8750
            RECHARGE =           0.0000              RECHARGE =           0.0000

           TOTAL OUT =389627084800.0000             TOTAL OUT =    46309348.0000

            IN - OUT =      294912.0000              IN - OUT =          -4.0000

 PERCENT DISCREPANCY =           0.00     PERCENT DISCREPANCY =          -0.00






         TIME SUMMARY AT END OF TIME STEP   12 IN STRESS PERIOD   30
                    SECONDS     MINUTES      HOURS       DAYS        YEARS
                    -----------------------------------------------------------
   TIME STEP LENGTH 2.62800E+06  43800.      730.00      30.417     8.32763E-02
 STRESS PERIOD TIME 3.15360E+07 5.25600E+05  8760.0      365.00     0.99932    
         TOTAL TIME 9.46772E+08 1.57795E+07 2.62992E+05  10958.      30.001    
1
1
                            STRESS PERIOD NO.   31, LENGTH =   365.0000    
                            -----------------------------------------------

                              NUMBER OF TIME STEPS =    12

                               MULTIPLIER FOR DELT =     1.000

                            INITIAL TIME STEP SIZE =   30.41667    

   1647 WELLS

 REUSING SURF FROM LAST STRESS PERIOD

 REUSING EVTR FROM LAST STRESS PERIOD

 REUSING EXDP FROM LAST STRESS PERIOD



                           RECHARGE
 READING ON UNIT   16 WITH FORMAT: (15F5.0)            


     63 TIME-VARIANT SPECIFIED-HEAD CELLS
 
 SOLVING FOR HEAD 
                                                   Max.-Head-Change                         Max.-Flux-Residual
  Residual-Control   Outer-Iter.   Inner-Iter.     Column Row Layer    Maximum-Head-Change  Column Row Layer    Maximum-Flux-Residual          L2-NORM 
          0                 1          11            62   96     3      -0.1487527221E+03      32   21    2         0.4695664663E+06      0.1327639029E+07
          0                 2          10            62   95     3       0.1459522843E+02      62   95    3         0.5974499878E+05      0.1386834166E+06
          0                 3           7            36   19     2      -0.1172901883E+00      36   19    2        -0.3894510055E+04      0.4469804369E+04
          0                 4           5            36   19     2      -0.1057996015E-01      36   19    2        -0.3511373181E+03      0.3957384384E+03
          0                 5           4            36   19     2      -0.9514299049E-03      36   19    2        -0.3157240169E+02      0.3558206941E+02

    ------------------------------------------------
       NWT REQUIRED            5 OUTER ITERATIONS 
       AND A TOTAL OF         37 INNER ITERATIONS.
    ------------------------------------------------

 NO OUTPUT CONTROL FOR STRESS PERIOD   31   TIME STEP    1
 
 SOLVING FOR HEAD 
                                                   Max.-Head-Change                         Max.-Flux-Residual
  Residual-Control   Outer-Iter.   Inner-Iter.     Column Row Layer    Maximum-Head-Change  Column Row Layer    Maximum-Flux-Residual          L2-NORM 
          0                 1          11            63   96     3      -0.2506854818E+02      62   87    1        -0.2148798224E+06      0.7378713904E+06
          0                 2          10            22   41     2      -0.2998211047E+01      62   87    1         0.1448951251E+05      0.7542282829E+05
          0                 3           7            36   19     2       0.5947326562E+00      77   61    1        -0.2449174093E+04      0.4162650353E+04
          0                 4           5            77   61     1      -0.7644556305E-02      77   61    1        -0.2206807795E+03      0.2609959383E+03

    ------------------------------------------------
       NWT REQUIRED            4 OUTER ITERATIONS 
       AND A TOTAL OF         33 INNER ITERATIONS.
    ------------------------------------------------

 NO OUTPUT CONTROL FOR STRESS PERIOD   31   TIME STEP    2
 
 SOLVING FOR HEAD 
                                                   Max.-Head-Change                         Max.-Flux-Residual
  Residual-Control   Outer-Iter.   Inner-Iter.     Column Row Layer    Maximum-Head-Change  Column Row Layer    Maximum-Flux-Residual          L2-NORM 
          0                 1          11            64   96     3      -0.8631613393E+01      62   87    1        -0.1429190595E+06      0.6257522927E+06
          0                 2          10            20   39     2      -0.1802987049E+01      32   26    1        -0.2184920241E+05      0.6764099489E+05
          0                 3           6            20   39     2       0.1447570700E+00      32   26    1         0.2136547360E+04      0.2403335615E+04
          0                 4           4            20   39     2       0.1520573084E-02      32   26    1         0.4255154371E+01      0.6153352364E+01

    ------------------------------------------------
       NWT REQUIRED            4 OUTER ITERATIONS 
       AND A TOTAL OF         31 INNER ITERATIONS.
    ------------------------------------------------

 NO OUTPUT CONTROL FOR STRESS PERIOD   31   TIME STEP    3

 INTERPOLATION FOR HEAD OBS# 8309, ID 1471-31-113  CHANGED BECAUSE AT LEAST ONE
 NEIGHBORING CELL REQUIRED FOR INTERPOLATION IS DRY OR INACTIVE (OBS2BAS7SE)
 
 SOLVING FOR HEAD 
                                                   Max.-Head-Change                         Max.-Flux-Residual
  Residual-Control   Outer-Iter.   Inner-Iter.     Column Row Layer    Maximum-Head-Change  Column Row Layer    Maximum-Flux-Residual          L2-NORM 
          0                 1          11            65   96     3      -0.4727681577E+01      62   87    1        -0.1061530621E+06      0.5817416388E+06
          0                 2          10            20   39     2       0.8514010048E+00      62   87    1         0.1008402260E+05      0.5954875809E+05
          0                 3           6            32   32     1       0.3785856314E-01      21    7    1         0.3723246543E+03      0.6979123146E+03
          0                 4           3            32   32     1       0.1209421113E-03      32   32    1         0.1050452046E+01      0.1388335811E+01

    ------------------------------------------------
       NWT REQUIRED            4 OUTER ITERATIONS 
       AND A TOTAL OF         30 INNER ITERATIONS.
    ------------------------------------------------

 NO OUTPUT CONTROL FOR STRESS PERIOD   31   TIME STEP    4
 
 SOLVING FOR HEAD 
                                                   Max.-Head-Change                         Max.-Flux-Residual
  Residual-Control   Outer-Iter.   Inner-Iter.     Column Row Layer    Maximum-Head-Change  Column Row Layer    Maximum-Flux-Residual          L2-NORM 
          0                 1          11            65   96     3      -0.3154021496E+01      62   87    1        -0.8439687488E+05      0.5579079570E+06
          0                 2          10            22    7     1      -0.3002313679E+00      62   87    1         0.8102440754E+04      0.5642641467E+05
          0                 3           5            22    7     1       0.2682425317E-01      22    7    1         0.4896614186E+03      0.5940921066E+03
          0                 4           3            19    3     1       0.4596627847E-04      22    7    1         0.7449206784E+00      0.1045613982E+01

    ------------------------------------------------
       NWT REQUIRED            4 OUTER ITERATIONS 
       AND A TOTAL OF         29 INNER ITERATIONS.
    ------------------------------------------------

 NO OUTPUT CONTROL FOR STRESS PERIOD   31   TIME STEP    5
 
 SOLVING FOR HEAD 
                                                   Max.-Head-Change                         Max.-Flux-Residual
  Residual-Control   Outer-Iter.   Inner-Iter.     Column Row Layer    Maximum-Head-Change  Column Row Layer    Maximum-Flux-Residual          L2-NORM 
          0                 1          11            66  101     2       0.4210360793E+01      62   87    1        -0.7076262175E+05      0.5430746048E+06
          0                 2          10            51  103     3       0.8861782604E+01      51  103    3         0.1117182394E+05      0.5568492122E+05
          0                 3           6            51  103     3      -0.8056223064E+00      51  103    3        -0.1117182412E+04      0.1303626592E+04
          0                 4           3            85   85     2      -0.3355500412E-04      73   12    2        -0.4286406789E+00      0.6493507223E+00

    ------------------------------------------------
       NWT REQUIRED            4 OUTER ITERATIONS 
       AND A TOTAL OF         30 INNER ITERATIONS.
    ------------------------------------------------

 NO OUTPUT CONTROL FOR STRESS PERIOD   31   TIME STEP    6
 
 SOLVING FOR HEAD 
                                                   Max.-Head-Change                         Max.-Flux-Residual
  Residual-Control   Outer-Iter.   Inner-Iter.     Column Row Layer    Maximum-Head-Change  Column Row Layer    Maximum-Flux-Residual          L2-NORM 
          0                 1          11            51  103     3       0.2984244469E+01      62   87    1        -0.6177870896E+05      0.5323953519E+06
          0                 2          10            21    4     1      -0.4303097171E+00      23   14    2         0.7554647648E+04      0.5494609235E+05
          0                 3           6            21    4     1       0.3795928500E-01      23   14    1        -0.7557978262E+03      0.1164563621E+04
          0                 4           5            23   14     1      -0.1029280790E-02      23   14    1        -0.6803358018E+02      0.6805747762E+02

    ------------------------------------------------
       NWT REQUIRED            4 OUTER ITERATIONS 
       AND A TOTAL OF         32 INNER ITERATIONS.
    ------------------------------------------------

 NO OUTPUT CONTROL FOR STRESS PERIOD   31   TIME STEP    7
 
 SOLVING FOR HEAD 
                                                   Max.-Head-Change                         Max.-Flux-Residual
  Residual-Control   Outer-Iter.   Inner-Iter.     Column Row Layer    Maximum-Head-Change  Column Row Layer    Maximum-Flux-Residual          L2-NORM 
          0                 1          11            68   43     3      -0.2236567376E+01      62   87    1        -0.5558808106E+05      0.5244289003E+06
          0                 2          10            68   46     1      -0.6644027627E+00      23   14    1        -0.7019730336E+04      0.5427326677E+05
          0                 3           7            30   46     2      -0.8384030727E-01      30   46    2        -0.1641418157E+04      0.2328450245E+04
          0                 4           5            30   46     1      -0.7698820138E-02      30   46    2        -0.1483433521E+03      0.1828117584E+03

    ------------------------------------------------
       NWT REQUIRED            4 OUTER ITERATIONS 
       AND A TOTAL OF         33 INNER ITERATIONS.
    ------------------------------------------------

 NO OUTPUT CONTROL FOR STRESS PERIOD   31   TIME STEP    8
 
 SOLVING FOR HEAD 
                                                   Max.-Head-Change                         Max.-Flux-Residual
  Residual-Control   Outer-Iter.   Inner-Iter.     Column Row Layer    Maximum-Head-Change  Column Row Layer    Maximum-Flux-Residual          L2-NORM 
          0                 1          11            68   43     3      -0.2195599815E+01      62   87    1        -0.5105550319E+05      0.5177031363E+06
          0                 2          10            30   46     2      -0.3584143819E+01      55   84    3         0.1193996004E+05      0.5525061859E+05
          0                 3           8            30   46     2       0.1171345552E+01      30   46    2         0.4185881927E+04      0.6559318507E+04
          0                 4           6            30   46     1       0.1461268372E-01      21    9    1        -0.2743407203E+03      0.3066025890E+03
          0                 5           4            21    9     1      -0.4250822625E-03      21    9    1        -0.2466502561E+02      0.2633852794E+02

    ------------------------------------------------
       NWT REQUIRED            5 OUTER ITERATIONS 
       AND A TOTAL OF         39 INNER ITERATIONS.
    ------------------------------------------------

 NO OUTPUT CONTROL FOR STRESS PERIOD   31   TIME STEP    9

 INTERPOLATION FOR HEAD OBS#  629, ID 3019-31-297  CHANGED BECAUSE AT LEAST ONE
 NEIGHBORING CELL REQUIRED FOR INTERPOLATION IS DRY OR INACTIVE (OBS2BAS7SE)
 
 SOLVING FOR HEAD 
                                                   Max.-Head-Change                         Max.-Flux-Residual
  Residual-Control   Outer-Iter.   Inner-Iter.     Column Row Layer    Maximum-Head-Change  Column Row Layer    Maximum-Flux-Residual          L2-NORM 
          0                 1          11            65    7     2      -0.7632704837E+01      62   87    1        -0.4782403609E+05      0.5133114769E+06
          0                 2          10            55   83     3       0.2257409598E+01      55   83    3         0.1273125869E+05      0.5414921892E+05
          0                 3           6            55   83     3      -0.2052485721E+00      55   83    3        -0.1273125890E+04      0.1810945990E+04
          0                 4           3            65    7     2       0.6828681985E-03      19   36    2         0.1823209743E+01      0.2458034247E+01

    ------------------------------------------------
       NWT REQUIRED            4 OUTER ITERATIONS 
       AND A TOTAL OF         30 INNER ITERATIONS.
    ------------------------------------------------

 NO OUTPUT CONTROL FOR STRESS PERIOD   31   TIME STEP   10
 
 SOLVING FOR HEAD 
                                                   Max.-Head-Change                         Max.-Flux-Residual
  Residual-Control   Outer-Iter.   Inner-Iter.     Column Row Layer    Maximum-Head-Change  Column Row Layer    Maximum-Flux-Residual          L2-NORM 
          0                 1          11            55   82     3       0.2627020418E+01      62   87    1        -0.4540636956E+05      0.5091949192E+06
          0                 2          10            14   23     2      -0.2403490868E+01      14   23    2        -0.7974544125E+04      0.5284620317E+05
          0                 3           7            14   23     2       0.3800582175E+00      14   23    2         0.1616531722E+04      0.1966290508E+04
          0                 4           5            14   23     2       0.2560951239E-02      15   23    2        -0.5849679426E+02      0.6000061712E+02

    ------------------------------------------------
       NWT REQUIRED            4 OUTER ITERATIONS 
       AND A TOTAL OF         33 INNER ITERATIONS.
    ------------------------------------------------

 NO OUTPUT CONTROL FOR STRESS PERIOD   31   TIME STEP   11

 INTERPOLATION FOR HEAD OBS#  633, ID 3012-31-339  CHANGED BECAUSE AT LEAST ONE
 NEIGHBORING CELL REQUIRED FOR INTERPOLATION IS DRY OR INACTIVE (OBS2BAS7SE)
 
 SOLVING FOR HEAD 
                                                   Max.-Head-Change                         Max.-Flux-Residual
  Residual-Control   Outer-Iter.   Inner-Iter.     Column Row Layer    Maximum-Head-Change  Column Row Layer    Maximum-Flux-Residual          L2-NORM 
          0                 1          11            68   43     3      -0.2086638651E+01      68   43    3        -0.4426145522E+05      0.5057656880E+06
          0                 2          10            68   45     1      -0.1061199334E+01      33   26    1        -0.6969919623E+04      0.5151397995E+05
          0                 3           6            68   45     1       0.8674492935E-01      33   26    1         0.6880650565E+03      0.9012513641E+03
          0                 4           3            68   45     1       0.7948617806E-03      19   72    2        -0.8799570136E+01      0.9282434116E+01

    ------------------------------------------------
       NWT REQUIRED            4 OUTER ITERATIONS 
       AND A TOTAL OF         30 INNER ITERATIONS.
    ------------------------------------------------

 OUTPUT CONTROL FOR STRESS PERIOD   31   TIME STEP   12
    SAVE BUDGET
    SAVE HEAD FOR LAYERS:   1  2  3
 UBDSV1 SAVING "         STORAGE" ON UNIT  39 AT TIME STEP 12, STRESS PERIOD  31
 UBDSV2 SAVING "   CONSTANT HEAD" ON UNIT  39 AT TIME STEP 12, STRESS PERIOD  31
 UBDSV1 SAVING "FLOW RIGHT FACE " ON UNIT  39 AT TIME STEP 12, STRESS PERIOD  31
 UBDSV1 SAVING "FLOW FRONT FACE " ON UNIT  39 AT TIME STEP 12, STRESS PERIOD  31
 UBDSV1 SAVING "FLOW LOWER FACE " ON UNIT  39 AT TIME STEP 12, STRESS PERIOD  31
 UBDSV4 SAVING "           WELLS" ON UNIT  39 AT TIME STEP 12, STRESS PERIOD  31
 UBDSV3 SAVING "              ET" ON UNIT  39 AT TIME STEP 12, STRESS PERIOD  31
 UBDSV3 SAVING "        RECHARGE" ON UNIT  39 AT TIME STEP 12, STRESS PERIOD  31

 HEAD WILL BE SAVED ON UNIT   31 AT END OF TIME STEP   12, STRESS PERIOD   31
1
  VOLUMETRIC BUDGET FOR ENTIRE MODEL AT END OF TIME STEP   12, STRESS PERIOD  31
  ------------------------------------------------------------------------------

     CUMULATIVE VOLUMES      L**3       RATES FOR THIS TIME STEP      L**3/T
     ------------------                 ------------------------

           IN:                                      IN:
           ---                                      ---
             STORAGE =191175032832.0000               STORAGE =    26273208.0000
       CONSTANT HEAD = 15353396224.0000         CONSTANT HEAD =     1776932.0000
               WELLS = 13877913600.0000                 WELLS =     1225642.0000
                  ET =           0.0000                    ET =           0.0000
            RECHARGE =186836025344.0000              RECHARGE =    18557084.0000

            TOTAL IN =407242375168.0000              TOTAL IN =    47832864.0000

          OUT:                                     OUT:
          ----                                     ----
             STORAGE = 23639789568.0000               STORAGE =      649413.5625
       CONSTANT HEAD = 40630898688.0000         CONSTANT HEAD =     3312743.2500
               WELLS =332012912640.0000                 WELLS =    43394608.0000
                  ET = 10958507008.0000                    ET =      476108.5000
            RECHARGE =           0.0000              RECHARGE =           0.0000

           TOTAL OUT =407242113024.0000             TOTAL OUT =    47832872.0000

            IN - OUT =      262144.0000              IN - OUT =          -8.0000

 PERCENT DISCREPANCY =           0.00     PERCENT DISCREPANCY =          -0.00






         TIME SUMMARY AT END OF TIME STEP   12 IN STRESS PERIOD   31
                    SECONDS     MINUTES      HOURS       DAYS        YEARS
                    -----------------------------------------------------------
   TIME STEP LENGTH 2.62800E+06  43800.      730.00      30.417     8.32763E-02
 STRESS PERIOD TIME 3.15360E+07 5.25600E+05  8760.0      365.00     0.99932    
         TOTAL TIME 9.78308E+08 1.63051E+07 2.71752E+05  11323.      31.001    
1
1
                            STRESS PERIOD NO.   32, LENGTH =   365.0000    
                            -----------------------------------------------

                              NUMBER OF TIME STEPS =    12

                               MULTIPLIER FOR DELT =     1.000

                            INITIAL TIME STEP SIZE =   30.41667    

   1689 WELLS

 REUSING SURF FROM LAST STRESS PERIOD

 REUSING EVTR FROM LAST STRESS PERIOD

 REUSING EXDP FROM LAST STRESS PERIOD



                           RECHARGE
 READING ON UNIT   16 WITH FORMAT: (15F5.0)            


     63 TIME-VARIANT SPECIFIED-HEAD CELLS
 
 SOLVING FOR HEAD 
                                                   Max.-Head-Change                         Max.-Flux-Residual
  Residual-Control   Outer-Iter.   Inner-Iter.     Column Row Layer    Maximum-Head-Change  Column Row Layer    Maximum-Flux-Residual          L2-NORM 
          0                 1          11            62   96     3       0.1201702842E+03      62   96    3         0.3511436380E+06      0.1120143169E+07
          0                 2          10            92   77     2       0.4008032180E+02      88   67    1        -0.5129306708E+06      0.5285259570E+06
          0                 3           6            92   77     2      -0.2560950796E+02      92   77    2        -0.7685807185E+06      0.7693342651E+06
          0                 4           4            91   77     2       0.6158943066E+01      92   77    2        -0.9225238959E+04      0.1121432494E+05
          0                 5           3            91   77     2       0.8939929617E+00      91   77    2         0.4900600815E+03      0.6687675140E+03
          0                 6           2            91   77     2       0.1259470579E+00      91   77    2         0.6898238321E+02      0.8030875698E+02
          0                 7           2            91   77     2       0.1774732241E-01      91   77    2         0.9720054710E+01      0.1046848757E+02
          0                 8           1            91   77     2       0.2499436763E-02      91   77    2         0.1368818546E+01      0.1437924147E+01

    ------------------------------------------------
       NWT REQUIRED            8 OUTER ITERATIONS 
       AND A TOTAL OF         39 INNER ITERATIONS.
    ------------------------------------------------

 NO OUTPUT CONTROL FOR STRESS PERIOD   32   TIME STEP    1
 
 SOLVING FOR HEAD 
                                                   Max.-Head-Change                         Max.-Flux-Residual
  Residual-Control   Outer-Iter.   Inner-Iter.     Column Row Layer    Maximum-Head-Change  Column Row Layer    Maximum-Flux-Residual          L2-NORM 
          0                 1          11            63   96     3       0.1880843669E+02      62   86    1        -0.1296470476E+06      0.6509797857E+06
          0                 2           9            63   96     3      -0.1710976956E+01      61   87    2         0.2094099529E+05      0.6864506276E+05
          0                 3           6            20    6     1       0.2368346737E-01      20    6    1         0.3952131055E+03      0.6182568254E+03
          0                 4           3            53  118     1      -0.1185861855E-03      53  118    1        -0.8165629983E+01      0.8414593165E+01

    ------------------------------------------------
       NWT REQUIRED            4 OUTER ITERATIONS 
       AND A TOTAL OF         29 INNER ITERATIONS.
    ------------------------------------------------

 NO OUTPUT CONTROL FOR STRESS PERIOD   32   TIME STEP    2

 INTERPOLATION FOR HEAD OBS# 3407, ID 1428-32-85   CHANGED BECAUSE AT LEAST ONE
 NEIGHBORING CELL REQUIRED FOR INTERPOLATION IS DRY OR INACTIVE (OBS2BAS7SE)

 INTERPOLATION FOR HEAD OBS# 6999, ID 683-32-61    CHANGED BECAUSE AT LEAST ONE
 NEIGHBORING CELL REQUIRED FOR INTERPOLATION IS DRY OR INACTIVE (OBS2BAS7SE)
 
 SOLVING FOR HEAD 
                                                   Max.-Head-Change                         Max.-Flux-Residual
  Residual-Control   Outer-Iter.   Inner-Iter.     Column Row Layer    Maximum-Head-Change  Column Row Layer    Maximum-Flux-Residual          L2-NORM 
          0                 1          11            64   96     3       0.6177539167E+01      62   86    1        -0.9283202411E+05      0.5670852758E+06
          0                 2           9            22   40     2      -0.8827553989E+00      61   87    1        -0.9171699623E+04      0.5771484322E+05
          0                 3           6            22   40     2       0.7112143574E-01      61   87    1         0.8952200082E+03      0.1416908258E+04
          0                 4           4            22   40     2       0.7607817061E-03      17   11    1        -0.7479920828E+02      0.7503123481E+02

    ------------------------------------------------
       NWT REQUIRED            4 OUTER ITERATIONS 
       AND A TOTAL OF         30 INNER ITERATIONS.
    ------------------------------------------------

 NO OUTPUT CONTROL FOR STRESS PERIOD   32   TIME STEP    3

 INTERPOLATION FOR HEAD OBS# 8354, ID 3016-32-94   CHANGED BECAUSE AT LEAST ONE
 NEIGHBORING CELL REQUIRED FOR INTERPOLATION IS DRY OR INACTIVE (OBS2BAS7SE)

 INTERPOLATION FOR HEAD OBS# 8355, ID 3055-32-94   CHANGED BECAUSE AT LEAST ONE
 NEIGHBORING CELL REQUIRED FOR INTERPOLATION IS DRY OR INACTIVE (OBS2BAS7SE)

 INTERPOLATION FOR HEAD OBS# 8361, ID 2869-32-96   CHANGED BECAUSE AT LEAST ONE
 NEIGHBORING CELL REQUIRED FOR INTERPOLATION IS DRY OR INACTIVE (OBS2BAS7SE)
 
 SOLVING FOR HEAD 
                                                   Max.-Head-Change                         Max.-Flux-Residual
  Residual-Control   Outer-Iter.   Inner-Iter.     Column Row Layer    Maximum-Head-Change  Column Row Layer    Maximum-Flux-Residual          L2-NORM 
          0                 1          11            22   40     2      -0.3684287022E+01      62   86    1        -0.7111865474E+05      0.5298325658E+06
          0                 2           9            72   57     3       0.3028485711E+00      17    4    2        -0.9814858261E+04      0.5583674848E+05
          0                 3           6            17    4     2       0.1430697450E-01      17    4    2         0.9695958155E+03      0.1248615217E+04
          0                 4           3            91   77     2      -0.9392059466E-04      22   10    1         0.3420686126E+00      0.6452542195E+00

    ------------------------------------------------
       NWT REQUIRED            4 OUTER ITERATIONS 
       AND A TOTAL OF         29 INNER ITERATIONS.
    ------------------------------------------------

 NO OUTPUT CONTROL FOR STRESS PERIOD   32   TIME STEP    4
 
 SOLVING FOR HEAD 
                                                   Max.-Head-Change                         Max.-Flux-Residual
  Residual-Control   Outer-Iter.   Inner-Iter.     Column Row Layer    Maximum-Head-Change  Column Row Layer    Maximum-Flux-Residual          L2-NORM 
          0                 1          11            72   57     3      -0.2339996534E+01      62   86    1        -0.5776490912E+05      0.5087031584E+06
          0                 2           9            20    3     1      -0.4866492102E+00      62   86    1         0.5636742052E+04      0.5160082590E+05
          0                 3           6            20    3     1       0.4289528475E-01      24   16    1         0.5027429810E+03      0.7155831484E+03
          0                 4           3            20    3     1       0.1183353703E-03      22    9    1        -0.4069156632E+01      0.4272194092E+01

    ------------------------------------------------
       NWT REQUIRED            4 OUTER ITERATIONS 
       AND A TOTAL OF         29 INNER ITERATIONS.
    ------------------------------------------------

 NO OUTPUT CONTROL FOR STRESS PERIOD   32   TIME STEP    5
 
 SOLVING FOR HEAD 
                                                   Max.-Head-Change                         Max.-Flux-Residual
  Residual-Control   Outer-Iter.   Inner-Iter.     Column Row Layer    Maximum-Head-Change  Column Row Layer    Maximum-Flux-Residual          L2-NORM 
          0                 1          11            55   97     3       0.2200199775E+01      81   46    1         0.5358695169E+05      0.4940480511E+06
          0                 2           9            56   35     1      -0.9225576600E+00      22    9    1        -0.6264512121E+04      0.5048828951E+05
          0                 3           6            56   35     1       0.7585834025E-01      22    9    1         0.6175063866E+03      0.1069393822E+04
          0                 4           3            56   35     1       0.6585973334E-03      56   35    1         0.2962550372E+01      0.3481869778E+01

    ------------------------------------------------
       NWT REQUIRED            4 OUTER ITERATIONS 
       AND A TOTAL OF         29 INNER ITERATIONS.
    ------------------------------------------------

 NO OUTPUT CONTROL FOR STRESS PERIOD   32   TIME STEP    6
 
 SOLVING FOR HEAD 
                                                   Max.-Head-Change                         Max.-Flux-Residual
  Residual-Control   Outer-Iter.   Inner-Iter.     Column Row Layer    Maximum-Head-Change  Column Row Layer    Maximum-Flux-Residual          L2-NORM 
          0                 1          11            55   97     3       0.2160383100E+01      81   46    1         0.5194330265E+05      0.4831564283E+06
          0                 2           9            90   67     2       0.5351162831E+00      85   62    1        -0.5306617465E+04      0.4921242611E+05
          0                 3           5            90   67     2      -0.4864342724E-01      90   67    2        -0.4948384865E+03      0.5608249257E+03
          0                 4           3            13   83     1      -0.2598743112E-03      13   83    1        -0.1229794419E+02      0.1231607021E+02

    ------------------------------------------------
       NWT REQUIRED            4 OUTER ITERATIONS 
       AND A TOTAL OF         28 INNER ITERATIONS.
    ------------------------------------------------

 NO OUTPUT CONTROL FOR STRESS PERIOD   32   TIME STEP    7
 
 SOLVING FOR HEAD 
                                                   Max.-Head-Change                         Max.-Flux-Residual
  Residual-Control   Outer-Iter.   Inner-Iter.     Column Row Layer    Maximum-Head-Change  Column Row Layer    Maximum-Flux-Residual          L2-NORM 
          0                 1          11            55   97     3       0.2120383203E+01      81   46    1         0.5033976702E+05      0.4745426628E+06
          0                 2           9            55   97     3      -0.1908598289E+00      81   46    1        -0.5038915310E+04      0.4775393403E+05
          0                 3           5            13   83     1       0.3819402801E-02      13   83    1         0.6219891661E+02      0.6968990159E+02

    ------------------------------------------------
       NWT REQUIRED            3 OUTER ITERATIONS 
       AND A TOTAL OF         25 INNER ITERATIONS.
    ------------------------------------------------

 NO OUTPUT CONTROL FOR STRESS PERIOD   32   TIME STEP    8
 
 SOLVING FOR HEAD 
                                                   Max.-Head-Change                         Max.-Flux-Residual
  Residual-Control   Outer-Iter.   Inner-Iter.     Column Row Layer    Maximum-Head-Change  Column Row Layer    Maximum-Flux-Residual          L2-NORM 
          0                 1          11            55   97     3       0.2080262574E+01      81   46    1         0.4878059585E+05      0.4673015498E+06
          0                 2           9            78   56     1      -0.1599337118E+01      78   56    1        -0.5705316787E+04      0.4723158287E+05
          0                 3           6            78   56     1       0.1306448965E+00      78   56    1         0.5134142029E+03      0.6423301451E+03
          0                 4           3            78   56     1       0.1196413386E-02      78   56    1         0.4614282385E+01      0.4724930005E+01

    ------------------------------------------------
       NWT REQUIRED            4 OUTER ITERATIONS 
       AND A TOTAL OF         29 INNER ITERATIONS.
    ------------------------------------------------

 NO OUTPUT CONTROL FOR STRESS PERIOD   32   TIME STEP    9
 
 SOLVING FOR HEAD 
                                                   Max.-Head-Change                         Max.-Flux-Residual
  Residual-Control   Outer-Iter.   Inner-Iter.     Column Row Layer    Maximum-Head-Change  Column Row Layer    Maximum-Flux-Residual          L2-NORM 
          0                 1          11            55   97     3       0.2040083663E+01      81   46    1         0.4726570718E+05      0.4611319326E+06
          0                 2           9            14   24     2      -0.7178420281E+00      81   46    1        -0.4730920201E+04      0.4675098782E+05
          0                 3           6            14   24     2       0.8239409401E-01      14   24    2         0.5605741276E+03      0.7874856912E+03
          0                 4           4            14   24     2       0.3500723166E-03      15   24    2        -0.1070175180E+02      0.1114551634E+02

    ------------------------------------------------
       NWT REQUIRED            4 OUTER ITERATIONS 
       AND A TOTAL OF         30 INNER ITERATIONS.
    ------------------------------------------------

 NO OUTPUT CONTROL FOR STRESS PERIOD   32   TIME STEP   10
 
 SOLVING FOR HEAD 
                                                   Max.-Head-Change                         Max.-Flux-Residual
  Residual-Control   Outer-Iter.   Inner-Iter.     Column Row Layer    Maximum-Head-Change  Column Row Layer    Maximum-Flux-Residual          L2-NORM 
          0                 1          11            55   97     3       0.1999907536E+01      81   46    1         0.4579481780E+05      0.4557999455E+06
          0                 2           9            55   97     3      -0.1799897844E+00      32   31    2         0.4665234992E+04      0.4630683259E+05
          0                 3           6            35   54     2       0.1468793268E-01      31   29    2         0.3060816034E+03      0.4322559686E+03
          0                 4           3            91   77     2      -0.7349137639E-04      35   54    2         0.4092131332E+00      0.4583167073E+00

    ------------------------------------------------
       NWT REQUIRED            4 OUTER ITERATIONS 
       AND A TOTAL OF         29 INNER ITERATIONS.
    ------------------------------------------------

 NO OUTPUT CONTROL FOR STRESS PERIOD   32   TIME STEP   11
 
 SOLVING FOR HEAD 
                                                   Max.-Head-Change                         Max.-Flux-Residual
  Residual-Control   Outer-Iter.   Inner-Iter.     Column Row Layer    Maximum-Head-Change  Column Row Layer    Maximum-Flux-Residual          L2-NORM 
          0                 1          11            55   97     3       0.1959793252E+01      81   46    1         0.4436751882E+05      0.4510152009E+06
          0                 2           9            61   88     2       0.2568785339E+00      61   88    2         0.1552943144E+05      0.4831314961E+05
          0                 3           5            20    8     1       0.1232618099E-01      20    8    1         0.3493618580E+03      0.3715843437E+03
          0                 4           2            91   77     2      -0.7076561512E-04      61   88    1        -0.3505966812E+00      0.5253706408E+00

    ------------------------------------------------
       NWT REQUIRED            4 OUTER ITERATIONS 
       AND A TOTAL OF         27 INNER ITERATIONS.
    ------------------------------------------------

 OUTPUT CONTROL FOR STRESS PERIOD   32   TIME STEP   12
    SAVE BUDGET
 UBDSV1 SAVING "         STORAGE" ON UNIT  39 AT TIME STEP 12, STRESS PERIOD  32
 UBDSV2 SAVING "   CONSTANT HEAD" ON UNIT  39 AT TIME STEP 12, STRESS PERIOD  32
 UBDSV1 SAVING "FLOW RIGHT FACE " ON UNIT  39 AT TIME STEP 12, STRESS PERIOD  32
 UBDSV1 SAVING "FLOW FRONT FACE " ON UNIT  39 AT TIME STEP 12, STRESS PERIOD  32
 UBDSV1 SAVING "FLOW LOWER FACE " ON UNIT  39 AT TIME STEP 12, STRESS PERIOD  32
 UBDSV4 SAVING "           WELLS" ON UNIT  39 AT TIME STEP 12, STRESS PERIOD  32
 UBDSV3 SAVING "              ET" ON UNIT  39 AT TIME STEP 12, STRESS PERIOD  32
 UBDSV3 SAVING "        RECHARGE" ON UNIT  39 AT TIME STEP 12, STRESS PERIOD  32
1
  VOLUMETRIC BUDGET FOR ENTIRE MODEL AT END OF TIME STEP   12, STRESS PERIOD  32
  ------------------------------------------------------------------------------

     CUMULATIVE VOLUMES      L**3       RATES FOR THIS TIME STEP      L**3/T
     ------------------                 ------------------------

           IN:                                      IN:
           ---                                      ---
             STORAGE =199505199104.0000               STORAGE =    22192356.0000
       CONSTANT HEAD = 16030689280.0000         CONSTANT HEAD =     1914479.7500
               WELLS = 14325233664.0000                 WELLS =     1225525.0000
                  ET =           0.0000                    ET =           0.0000
            RECHARGE =195453550592.0000              RECHARGE =    23609482.0000

            TOTAL IN =425314680832.0000              TOTAL IN =    48941844.0000

          OUT:                                     OUT:
          ----                                     ----
             STORAGE = 24483237888.0000               STORAGE =     1668359.3750
       CONSTANT HEAD = 41853894656.0000         CONSTANT HEAD =     3374781.7500
               WELLS =347802894336.0000                 WELLS =    43260604.0000
                  ET = 11174171648.0000                    ET =      638100.4375
            RECHARGE =           0.0000              RECHARGE =           0.0000

           TOTAL OUT =425314189312.0000             TOTAL OUT =    48941844.0000

            IN - OUT =      491520.0000              IN - OUT =           0.0000

 PERCENT DISCREPANCY =           0.00     PERCENT DISCREPANCY =           0.00






         TIME SUMMARY AT END OF TIME STEP   12 IN STRESS PERIOD   32
                    SECONDS     MINUTES      HOURS       DAYS        YEARS
                    -----------------------------------------------------------
   TIME STEP LENGTH 2.62800E+06  43800.      730.00      30.417     8.32763E-02
 STRESS PERIOD TIME 3.15360E+07 5.25600E+05  8760.0      365.00     0.99932    
         TOTAL TIME 1.00984E+09 1.68307E+07 2.80512E+05  11688.      32.000    
1
1
                            STRESS PERIOD NO.   33, LENGTH =   366.0000    
                            -----------------------------------------------

                              NUMBER OF TIME STEPS =    12

                               MULTIPLIER FOR DELT =     1.000

                            INITIAL TIME STEP SIZE =   30.50000    

   1693 WELLS

 REUSING SURF FROM LAST STRESS PERIOD

 REUSING EVTR FROM LAST STRESS PERIOD

 REUSING EXDP FROM LAST STRESS PERIOD



                           RECHARGE
 READING ON UNIT   16 WITH FORMAT: (15F5.0)            


     63 TIME-VARIANT SPECIFIED-HEAD CELLS
 
 SOLVING FOR HEAD 
                                                   Max.-Head-Change                         Max.-Flux-Residual
  Residual-Control   Outer-Iter.   Inner-Iter.     Column Row Layer    Maximum-Head-Change  Column Row Layer    Maximum-Flux-Residual          L2-NORM 
          0                 1          11            61   96     3      -0.7542575113E+02      61   96    3        -0.3405144661E+06      0.9989470072E+06
          0                 2          10            51  103     3       0.2052756684E+02      51  103    3         0.5002389653E+06      0.5131152684E+06
          0                 3           6            85   62     1       0.7989297714E+00      51  103    3        -0.2084894379E+04      0.3817515175E+04
          0                 4           5            85   62     1       0.2210311401E-01      51  103    3        -0.1832290688E+03      0.2554013906E+03
          0                 5           4            85   62     1       0.6094944951E-03      51  103    3        -0.1647253528E+02      0.2296955923E+02

    ------------------------------------------------
       NWT REQUIRED            5 OUTER ITERATIONS 
       AND A TOTAL OF         36 INNER ITERATIONS.
    ------------------------------------------------

 NO OUTPUT CONTROL FOR STRESS PERIOD   33   TIME STEP    1
 
 SOLVING FOR HEAD 
                                                   Max.-Head-Change                         Max.-Flux-Residual
  Residual-Control   Outer-Iter.   Inner-Iter.     Column Row Layer    Maximum-Head-Change  Column Row Layer    Maximum-Flux-Residual          L2-NORM 
          0                 1          11            69   63     3       0.7440355451E+01      58   71    1        -0.1020823057E+06      0.6667774976E+06
          0                 2           9            65    4     2      -0.4419153528E+01      57  103    2        -0.1808228179E+05      0.7243883894E+05
          0                 3           6            65    4     2       0.1417749409E+00      58  100    3         0.2675280873E+04      0.2810528376E+04
          0                 4           4            65    4     2       0.8314167473E-02      58  100    3         0.2613665767E+03      0.2630374140E+03

    ------------------------------------------------
       NWT REQUIRED            4 OUTER ITERATIONS 
       AND A TOTAL OF         30 INNER ITERATIONS.
    ------------------------------------------------

 NO OUTPUT CONTROL FOR STRESS PERIOD   33   TIME STEP    2
 
 SOLVING FOR HEAD 
                                                   Max.-Head-Change                         Max.-Flux-Residual
  Residual-Control   Outer-Iter.   Inner-Iter.     Column Row Layer    Maximum-Head-Change  Column Row Layer    Maximum-Flux-Residual          L2-NORM 
          0                 1          11            53  106     3       0.4936442063E+01      58   71    1        -0.7805691942E+05      0.6050806064E+06
          0                 2           9            92   77     2      -0.7103870307E+02      92   77    2        -0.2259575054E+05      0.6602111455E+05
          0                 3           6            92   77     2       0.5978294698E+01      92   77    2         0.4136527958E+04      0.6113823906E+04
          0                 4           3            92   77     2       0.2485113267E+00      92   77    2         0.1706505690E+03      0.2413984127E+03
          0                 5           2            92   77     2       0.1014511211E-01      92   76    2        -0.7887915728E+01      0.1275180885E+02
          0                 6           2            92   77     2       0.4128681599E-03      92   77    3         0.9501824044E+00      0.1068718676E+01

    ------------------------------------------------
       NWT REQUIRED            6 OUTER ITERATIONS 
       AND A TOTAL OF         33 INNER ITERATIONS.
    ------------------------------------------------

 NO OUTPUT CONTROL FOR STRESS PERIOD   33   TIME STEP    3
 
 SOLVING FOR HEAD 
                                                   Max.-Head-Change                         Max.-Flux-Residual
  Residual-Control   Outer-Iter.   Inner-Iter.     Column Row Layer    Maximum-Head-Change  Column Row Layer    Maximum-Flux-Residual          L2-NORM 
          0                 1          10            92   77     2      -0.1562698234E+02      53  106    3         0.7227007201E+05      0.5736157571E+06
          0                 2           9            92   77     2       0.6553514951E+00      17   12    2         0.1125403777E+05      0.6005677358E+05
          0                 3           6            92   77     2       0.2649872848E-01      21   14    2         0.3570390893E+03      0.4031258563E+03
          0                 4           2            92   77     2       0.1088482633E-02      92   77    2         0.7296434067E+00      0.8288966391E+00

    ------------------------------------------------
       NWT REQUIRED            4 OUTER ITERATIONS 
       AND A TOTAL OF         27 INNER ITERATIONS.
    ------------------------------------------------

 NO OUTPUT CONTROL FOR STRESS PERIOD   33   TIME STEP    4

 INTERPOLATION FOR HEAD OBS# 7776, ID 164-33-152   CHANGED BECAUSE AT LEAST ONE
 NEIGHBORING CELL REQUIRED FOR INTERPOLATION IS DRY OR INACTIVE (OBS2BAS7SE)
 
 SOLVING FOR HEAD 
                                                   Max.-Head-Change                         Max.-Flux-Residual
  Residual-Control   Outer-Iter.   Inner-Iter.     Column Row Layer    Maximum-Head-Change  Column Row Layer    Maximum-Flux-Residual          L2-NORM 
          0                 1          10            53  106     3       0.4342609638E+01      53  106    3         0.6779364214E+05      0.5540724093E+06
          0                 2           9            30   45     2      -0.9346519774E+00      21   14    2         0.8301559062E+04      0.5686503359E+05
          0                 3           6            30   45     2       0.7283245066E-01      20   14    1         0.5904033881E+03      0.1016142926E+04
          0                 4           3            30   45     1       0.9325183619E-03      30   45    1         0.1530225098E+01      0.2408411545E+01

    ------------------------------------------------
       NWT REQUIRED            4 OUTER ITERATIONS 
       AND A TOTAL OF         28 INNER ITERATIONS.
    ------------------------------------------------

 NO OUTPUT CONTROL FOR STRESS PERIOD   33   TIME STEP    5
 
 SOLVING FOR HEAD 
                                                   Max.-Head-Change                         Max.-Flux-Residual
  Residual-Control   Outer-Iter.   Inner-Iter.     Column Row Layer    Maximum-Head-Change  Column Row Layer    Maximum-Flux-Residual          L2-NORM 
          0                 1          10            53  106     3       0.4073211212E+01      53  106    3         0.6358680546E+05      0.5398370511E+06
          0                 2           9            53  106     3      -0.3715079041E+00      61   85    2         0.9864147302E+04      0.5540904283E+05
          0                 3           6            34   27     1      -0.1999053644E-01      34   27    1        -0.1717084360E+04      0.1939485204E+04
          0                 4           5            34   27     1      -0.1801349972E-02      34   27    1        -0.1546861598E+03      0.1569182637E+03

    ------------------------------------------------
       NWT REQUIRED            4 OUTER ITERATIONS 
       AND A TOTAL OF         30 INNER ITERATIONS.
    ------------------------------------------------

 NO OUTPUT CONTROL FOR STRESS PERIOD   33   TIME STEP    6
 
 SOLVING FOR HEAD 
                                                   Max.-Head-Change                         Max.-Flux-Residual
  Residual-Control   Outer-Iter.   Inner-Iter.     Column Row Layer    Maximum-Head-Change  Column Row Layer    Maximum-Flux-Residual          L2-NORM 
          0                 1          10            53  106     3       0.3821532758E+01      53  106    3         0.5964660627E+05      0.5290458276E+06
          0                 2           9            53  106     3      -0.3484732382E+00      15   11    1        -0.1121956145E+05      0.5534888666E+05
          0                 3           6            34   27     1       0.2060482000E-01      15   11    1         0.1111090909E+04      0.1498396475E+04
          0                 4           3            92   77     2       0.6566872271E-04      34   27    1         0.9090189189E+00      0.1186588346E+01

    ------------------------------------------------
       NWT REQUIRED            4 OUTER ITERATIONS 
       AND A TOTAL OF         28 INNER ITERATIONS.
    ------------------------------------------------

 NO OUTPUT CONTROL FOR STRESS PERIOD   33   TIME STEP    7
 
 SOLVING FOR HEAD 
                                                   Max.-Head-Change                         Max.-Flux-Residual
  Residual-Control   Outer-Iter.   Inner-Iter.     Column Row Layer    Maximum-Head-Change  Column Row Layer    Maximum-Flux-Residual          L2-NORM 
          0                 1          10            23   45     2      -0.4813890580E+01      55   97    3         0.5606596000E+05      0.5201021302E+06
          0                 2           9            88   67     1      -0.1231023381E+02      88   67    1        -0.1492343973E+05      0.5508456662E+05
          0                 3           5            88   67     1       0.7554181069E+00      88   67    2        -0.1249068751E+04      0.1675913336E+04
          0                 4           3            88   67     1       0.2223295338E-01      88   67    1         0.2962003760E+02      0.3006308919E+02
          0                 5           2            88   67     1       0.6522403637E-03      88   67    2         0.2238811507E+01      0.2420122969E+01

    ------------------------------------------------
       NWT REQUIRED            5 OUTER ITERATIONS 
       AND A TOTAL OF         29 INNER ITERATIONS.
    ------------------------------------------------

 NO OUTPUT CONTROL FOR STRESS PERIOD   33   TIME STEP    8
 
 SOLVING FOR HEAD 
                                                   Max.-Head-Change                         Max.-Flux-Residual
  Residual-Control   Outer-Iter.   Inner-Iter.     Column Row Layer    Maximum-Head-Change  Column Row Layer    Maximum-Flux-Residual          L2-NORM 
          0                 1          10            53  106     3       0.3368250164E+01      55   97    3         0.5475189549E+05      0.5123588486E+06
          0                 2           9            87   63     1      -0.9676734995E+00      61   89    2         0.1916293601E+05      0.5503612906E+05
          0                 3           6            61   89     1      -0.1162928621E+00      61   89    1        -0.8849109636E+04      0.8909806217E+04
          0                 4           4            61   89     1      -0.1051547575E-01      61   89    1        -0.7994297189E+03      0.8022635776E+03
          0                 5           3            61   89     1      -0.9458447932E-03      61   89    1        -0.7189332163E+02      0.7214218129E+02

    ------------------------------------------------
       NWT REQUIRED            5 OUTER ITERATIONS 
       AND A TOTAL OF         32 INNER ITERATIONS.
    ------------------------------------------------

 NO OUTPUT CONTROL FOR STRESS PERIOD   33   TIME STEP    9
 
 SOLVING FOR HEAD 
                                                   Max.-Head-Change                         Max.-Flux-Residual
  Residual-Control   Outer-Iter.   Inner-Iter.     Column Row Layer    Maximum-Head-Change  Column Row Layer    Maximum-Flux-Residual          L2-NORM 
          0                 1          10            53  106     3       0.3164862455E+01      55   97    3         0.5344853560E+05      0.5055794881E+06
          0                 2           9            60  117     1      -0.5615332624E+00      53  116    2         0.1735375015E+05      0.5876495409E+05
          0                 3           6            60  117     1       0.4793414791E-01      60   63    2         0.1253196494E+04      0.1981786975E+04
          0                 4           3            60  117     1       0.2657027297E-03      61   89    1         0.1454345018E+01      0.2565510845E+01

    ------------------------------------------------
       NWT REQUIRED            4 OUTER ITERATIONS 
       AND A TOTAL OF         28 INNER ITERATIONS.
    ------------------------------------------------

 NO OUTPUT CONTROL FOR STRESS PERIOD   33   TIME STEP   10

 INTERPOLATION FOR HEAD OBS#  252, ID 3260-33-313  CHANGED BECAUSE AT LEAST ONE
 NEIGHBORING CELL REQUIRED FOR INTERPOLATION IS DRY OR INACTIVE (OBS2BAS7SE)
 
 SOLVING FOR HEAD 
                                                   Max.-Head-Change                         Max.-Flux-Residual
  Residual-Control   Outer-Iter.   Inner-Iter.     Column Row Layer    Maximum-Head-Change  Column Row Layer    Maximum-Flux-Residual          L2-NORM 
          0                 1          10            53  106     3       0.2969760976E+01      55   97    3         0.5215796223E+05      0.5001413881E+06
          0                 2           9            53  116     1      -0.3433816628E+00      60   63    2         0.2716656116E+05      0.6028847943E+05
          0                 3           6            53  116     1       0.3074747654E-01      53  116    1         0.7620383188E+03      0.1027862937E+04
          0                 4           3            55  100     2       0.8070734552E-04      55  100    3         0.2087344315E+01      0.2333002110E+01

    ------------------------------------------------
       NWT REQUIRED            4 OUTER ITERATIONS 
       AND A TOTAL OF         28 INNER ITERATIONS.
    ------------------------------------------------

 NO OUTPUT CONTROL FOR STRESS PERIOD   33   TIME STEP   11
 
 SOLVING FOR HEAD 
                                                   Max.-Head-Change                         Max.-Flux-Residual
  Residual-Control   Outer-Iter.   Inner-Iter.     Column Row Layer    Maximum-Head-Change  Column Row Layer    Maximum-Flux-Residual          L2-NORM 
          0                 1          10            53  106     3       0.2789387501E+01      55   97    3         0.5088210293E+05      0.4946527510E+06
          0                 2           9            14   21     2      -0.2374915982E+01      19   14    2         0.6769719532E+04      0.5054462109E+05
          0                 3           7            14   21     2       0.2737871568E+00      14   21    2         0.9778912263E+03      0.1622299241E+04
          0                 4           5            14   21     2       0.2142443084E-02      19   14    1        -0.6878396901E+02      0.7597857451E+02

    ------------------------------------------------
       NWT REQUIRED            4 OUTER ITERATIONS 
       AND A TOTAL OF         31 INNER ITERATIONS.
    ------------------------------------------------

 OUTPUT CONTROL FOR STRESS PERIOD   33   TIME STEP   12
    SAVE BUDGET
 UBDSV1 SAVING "         STORAGE" ON UNIT  39 AT TIME STEP 12, STRESS PERIOD  33
 UBDSV2 SAVING "   CONSTANT HEAD" ON UNIT  39 AT TIME STEP 12, STRESS PERIOD  33
 UBDSV1 SAVING "FLOW RIGHT FACE " ON UNIT  39 AT TIME STEP 12, STRESS PERIOD  33
 UBDSV1 SAVING "FLOW FRONT FACE " ON UNIT  39 AT TIME STEP 12, STRESS PERIOD  33
 UBDSV1 SAVING "FLOW LOWER FACE " ON UNIT  39 AT TIME STEP 12, STRESS PERIOD  33
 UBDSV4 SAVING "           WELLS" ON UNIT  39 AT TIME STEP 12, STRESS PERIOD  33
 UBDSV3 SAVING "              ET" ON UNIT  39 AT TIME STEP 12, STRESS PERIOD  33
 UBDSV3 SAVING "        RECHARGE" ON UNIT  39 AT TIME STEP 12, STRESS PERIOD  33
1
  VOLUMETRIC BUDGET FOR ENTIRE MODEL AT END OF TIME STEP   12, STRESS PERIOD  33
  ------------------------------------------------------------------------------

     CUMULATIVE VOLUMES      L**3       RATES FOR THIS TIME STEP      L**3/T
     ------------------                 ------------------------

           IN:                                      IN:
           ---                                      ---
             STORAGE =208657858560.0000               STORAGE =    24469888.0000
       CONSTANT HEAD = 16774944768.0000         CONSTANT HEAD =     2100312.5000
               WELLS = 14773770240.0000                 WELLS =     1225525.0000
                  ET =           0.0000                    ET =           0.0000
            RECHARGE =203259871232.0000              RECHARGE =    21328528.0000

            TOTAL IN =443466448896.0000              TOTAL IN =    49124252.0000

          OUT:                                     OUT:
          ----                                     ----
             STORAGE = 25197670400.0000               STORAGE =     1481915.5000
       CONSTANT HEAD = 43092590592.0000         CONSTANT HEAD =     3386538.5000
               WELLS =363770216448.0000                 WELLS =    43626540.0000
                  ET = 11405441024.0000                    ET =      629274.9375
            RECHARGE =           0.0000              RECHARGE =           0.0000

           TOTAL OUT =443465924608.0000             TOTAL OUT =    49124272.0000

            IN - OUT =      524288.0000              IN - OUT =         -20.0000

 PERCENT DISCREPANCY =           0.00     PERCENT DISCREPANCY =          -0.00






         TIME SUMMARY AT END OF TIME STEP   12 IN STRESS PERIOD   33
                    SECONDS     MINUTES      HOURS       DAYS        YEARS
                    -----------------------------------------------------------
   TIME STEP LENGTH 2.63520E+06  43920.      732.00      30.500     8.35044E-02
 STRESS PERIOD TIME 3.16224E+07 5.27040E+05  8784.0      366.00      1.0021    
         TOTAL TIME 1.04147E+09 1.73578E+07 2.89296E+05  12054.      33.002    
1
1
                            STRESS PERIOD NO.   34, LENGTH =   365.0000    
                            -----------------------------------------------

                              NUMBER OF TIME STEPS =    12

                               MULTIPLIER FOR DELT =     1.000

                            INITIAL TIME STEP SIZE =   30.41667    

   1755 WELLS

 REUSING SURF FROM LAST STRESS PERIOD

 REUSING EVTR FROM LAST STRESS PERIOD

 REUSING EXDP FROM LAST STRESS PERIOD



                           RECHARGE
 READING ON UNIT   16 WITH FORMAT: (15F5.0)            


     63 TIME-VARIANT SPECIFIED-HEAD CELLS
 
 SOLVING FOR HEAD 
                                                   Max.-Head-Change                         Max.-Flux-Residual
  Residual-Control   Outer-Iter.   Inner-Iter.     Column Row Layer    Maximum-Head-Change  Column Row Layer    Maximum-Flux-Residual          L2-NORM 
          0                 1          11            54  107     2       0.2923002347E+02      62   85    1         0.3125604603E+06      0.1071241504E+07
          0                 2          10            54  107     2      -0.2193120281E+01      77   64    2         0.5730693712E+05      0.1263944415E+06
          0                 3           6            54  107     2      -0.3561837818E-01      24   21    1         0.8609005997E+03      0.1342771196E+04
          0                 4           4            65    2     2       0.6820459441E-03      62  104    2        -0.4270344800E+01      0.6455214465E+01

    ------------------------------------------------
       NWT REQUIRED            4 OUTER ITERATIONS 
       AND A TOTAL OF         31 INNER ITERATIONS.
    ------------------------------------------------

 NO OUTPUT CONTROL FOR STRESS PERIOD   34   TIME STEP    1
 
 SOLVING FOR HEAD 
                                                   Max.-Head-Change                         Max.-Flux-Residual
  Residual-Control   Outer-Iter.   Inner-Iter.     Column Row Layer    Maximum-Head-Change  Column Row Layer    Maximum-Flux-Residual          L2-NORM 
          0                 1          10            59   85     3      -0.5718794097E+01      62   85    1         0.1981499938E+06      0.6977755990E+06
          0                 2           9            59   85     3       0.5110903816E+00      62   85    1        -0.2022952876E+05      0.7110570561E+05
          0                 3           6            61   85     1       0.3850908230E-01      62   85    1        -0.7790202859E+03      0.1476517986E+04
          0                 4           3            61   85     1       0.3538211735E-02      61   85    1         0.7154485772E+02      0.7203865011E+02

    ------------------------------------------------
       NWT REQUIRED            4 OUTER ITERATIONS 
       AND A TOTAL OF         28 INNER ITERATIONS.
    ------------------------------------------------

 NO OUTPUT CONTROL FOR STRESS PERIOD   34   TIME STEP    2
 
 SOLVING FOR HEAD 
                                                   Max.-Head-Change                         Max.-Flux-Residual
  Residual-Control   Outer-Iter.   Inner-Iter.     Column Row Layer    Maximum-Head-Change  Column Row Layer    Maximum-Flux-Residual          L2-NORM 
          0                 1          10            53  106     3       0.5042302970E+01      62   85    1         0.1198420479E+06      0.6091271516E+06
          0                 2           9            80   56     1      -0.3441618656E+01      62   85    1        -0.1830059290E+05      0.6468165871E+05
          0                 3           6            80   56     1       0.2769718651E+00      35   29    1        -0.1750781227E+04      0.1963400738E+04
          0                 4           5            35   29     1      -0.3021183567E-02      35   29    1        -0.1577328503E+03      0.1580195406E+03

    ------------------------------------------------
       NWT REQUIRED            4 OUTER ITERATIONS 
       AND A TOTAL OF         30 INNER ITERATIONS.
    ------------------------------------------------

 NO OUTPUT CONTROL FOR STRESS PERIOD   34   TIME STEP    3
 
 SOLVING FOR HEAD 
                                                   Max.-Head-Change                         Max.-Flux-Residual
  Residual-Control   Outer-Iter.   Inner-Iter.     Column Row Layer    Maximum-Head-Change  Column Row Layer    Maximum-Flux-Residual          L2-NORM 
          0                 1          10            53  106     3       0.4703559229E+01      53  106    3         0.7406838281E+05      0.5644842049E+06
          0                 2           9            54  107     2      -0.2629719787E+01      54  107    2        -0.9012879955E+05      0.1091768102E+06
          0                 3           6            35   29     1       0.3367751804E-01      35   29    1         0.5015825693E+03      0.6161842405E+03
          0                 4           3            54  106     2       0.2237424197E-02      55  107    2         0.9371399045E+01      0.1442194348E+02

    ------------------------------------------------
       NWT REQUIRED            4 OUTER ITERATIONS 
       AND A TOTAL OF         28 INNER ITERATIONS.
    ------------------------------------------------

 NO OUTPUT CONTROL FOR STRESS PERIOD   34   TIME STEP    4

 INTERPOLATION FOR HEAD OBS# 5335, ID 1735-34-152  CHANGED BECAUSE AT LEAST ONE
 NEIGHBORING CELL REQUIRED FOR INTERPOLATION IS DRY OR INACTIVE (OBS2BAS7SE)
 
 SOLVING FOR HEAD 
                                                   Max.-Head-Change                         Max.-Flux-Residual
  Residual-Control   Outer-Iter.   Inner-Iter.     Column Row Layer    Maximum-Head-Change  Column Row Layer    Maximum-Flux-Residual          L2-NORM 
          0                 1          10            53  106     3       0.4383147116E+01      53  106    3         0.6907766752E+05      0.5367329015E+06
          0                 2           9            53  106     3      -0.4075346066E+00      20   38    3        -0.1238362249E+05      0.5751620739E+05
          0                 3           6            49  118     2      -0.1535924620E+00      20   38    3        -0.1126517553E+05      0.1260970504E+05
          0                 4           5            49  118     2      -0.1384234201E-01      20   38    3        -0.1124425559E+05      0.1125530764E+05
          0                 5           9            20   38     3      -0.2346437960E+00      20   38    3        -0.1122439409E+05      0.1122452953E+05
          0                 6           7            20   38     3       0.2131008250E-01      20   38    3         0.1995741513E+04      0.2345347998E+04
          0                 7           6            21   38     3      -0.6323552145E-03      20   38    3         0.3718381891E+02      0.6412876151E+02

    ------------------------------------------------
       NWT REQUIRED            7 OUTER ITERATIONS 
       AND A TOTAL OF         52 INNER ITERATIONS.
    ------------------------------------------------

 NO OUTPUT CONTROL FOR STRESS PERIOD   34   TIME STEP    5
 
 SOLVING FOR HEAD 
                                                   Max.-Head-Change                         Max.-Flux-Residual
  Residual-Control   Outer-Iter.   Inner-Iter.     Column Row Layer    Maximum-Head-Change  Column Row Layer    Maximum-Flux-Residual          L2-NORM 
          0                 1          10            53  106     3       0.4010670358E+01      53  106    3         0.6427282637E+05      0.5173914054E+06
          0                 2           9            49  118     2      -0.2092097874E+01      19   72    2        -0.1137801847E+05      0.5469878452E+05
          0                 3           5            49  118     2       0.1670790112E+00      49  118    2         0.4647963763E+03      0.6085394342E+03
          0                 4           3            49  118     2       0.1818871913E-02      49  118    2         0.4997844039E+01      0.5164815411E+01

    ------------------------------------------------
       NWT REQUIRED            4 OUTER ITERATIONS 
       AND A TOTAL OF         27 INNER ITERATIONS.
    ------------------------------------------------

 NO OUTPUT CONTROL FOR STRESS PERIOD   34   TIME STEP    6

 INTERPOLATION FOR HEAD OBS# 3612, ID 1370-34-198  CHANGED BECAUSE AT LEAST ONE
 NEIGHBORING CELL REQUIRED FOR INTERPOLATION IS DRY OR INACTIVE (OBS2BAS7SE)
 
 SOLVING FOR HEAD 
                                                   Max.-Head-Change                         Max.-Flux-Residual
  Residual-Control   Outer-Iter.   Inner-Iter.     Column Row Layer    Maximum-Head-Change  Column Row Layer    Maximum-Flux-Residual          L2-NORM 
          0                 1          10            53  106     3       0.3686418668E+01      53  106    3         0.5892239706E+05      0.5028886594E+06
          0                 2           9            23   44     2      -0.1937707045E+01      20   16    1        -0.6776922816E+04      0.5136522441E+05
          0                 3           6            23   44     2       0.1551435369E+00      56   50    1        -0.1665905191E+04      0.1896588590E+04
          0                 4           4            56   50     1      -0.2308471259E-02      56   50    1        -0.1499885677E+03      0.1500799424E+03

    ------------------------------------------------
       NWT REQUIRED            4 OUTER ITERATIONS 
       AND A TOTAL OF         29 INNER ITERATIONS.
    ------------------------------------------------

 NO OUTPUT CONTROL FOR STRESS PERIOD   34   TIME STEP    7
 
 SOLVING FOR HEAD 
                                                   Max.-Head-Change                         Max.-Flux-Residual
  Residual-Control   Outer-Iter.   Inner-Iter.     Column Row Layer    Maximum-Head-Change  Column Row Layer    Maximum-Flux-Residual          L2-NORM 
          0                 1          10            23   44     2      -0.8445002748E+01      53  106    3         0.5416949293E+05      0.4913434308E+06
          0                 2           9            54  106     2      -0.1767079435E+01      54  106    2        -0.5865126681E+05      0.7717613187E+05
          0                 3           6            56   50     1       0.8859509436E-02      16   11    1         0.6296644973E+03      0.7617290273E+03

    ------------------------------------------------
       NWT REQUIRED            3 OUTER ITERATIONS 
       AND A TOTAL OF         25 INNER ITERATIONS.
    ------------------------------------------------

 NO OUTPUT CONTROL FOR STRESS PERIOD   34   TIME STEP    8
 
 SOLVING FOR HEAD 
                                                   Max.-Head-Change                         Max.-Flux-Residual
  Residual-Control   Outer-Iter.   Inner-Iter.     Column Row Layer    Maximum-Head-Change  Column Row Layer    Maximum-Flux-Residual          L2-NORM 
          0                 1          10            53  106     3       0.3120135517E+01      91   67    2         0.4995877133E+05      0.4821837324E+06
          0                 2           9            30    7     2      -0.7927377160E+00      89   65    1        -0.1975594205E+05      0.5406706758E+05
          0                 3           6            30    7     2       0.6937991764E-01      20   15    1        -0.1699024505E+04      0.2082432789E+04
          0                 4           5            20   15     1      -0.1459513811E-02      20   15    1        -0.1529645762E+03      0.1530182913E+03

    ------------------------------------------------
       NWT REQUIRED            4 OUTER ITERATIONS 
       AND A TOTAL OF         30 INNER ITERATIONS.
    ------------------------------------------------

 NO OUTPUT CONTROL FOR STRESS PERIOD   34   TIME STEP    9
 
 SOLVING FOR HEAD 
                                                   Max.-Head-Change                         Max.-Flux-Residual
  Residual-Control   Outer-Iter.   Inner-Iter.     Column Row Layer    Maximum-Head-Change  Column Row Layer    Maximum-Flux-Residual          L2-NORM 
          0                 1          10            53  106     3       0.2878467577E+01      91   67    2         0.4806633745E+05      0.4743236743E+06
          0                 2           9            19   33     2      -0.1609254542E+01      18   13    2         0.1240192457E+05      0.5308971241E+05
          0                 3           6            19   33     2       0.1220986689E+00      60   64    1        -0.6725338186E+04      0.6893671005E+04
          0                 4           6            19   33     2       0.1624364605E-01      60   64    1        -0.6063158251E+03      0.6118489629E+03
          0                 5           4            60   64     1      -0.5782736695E-03      60   64    1        -0.5451625097E+02      0.5494263859E+02

    ------------------------------------------------
       NWT REQUIRED            5 OUTER ITERATIONS 
       AND A TOTAL OF         35 INNER ITERATIONS.
    ------------------------------------------------

 NO OUTPUT CONTROL FOR STRESS PERIOD   34   TIME STEP   10
 
 SOLVING FOR HEAD 
                                                   Max.-Head-Change                         Max.-Flux-Residual
  Residual-Control   Outer-Iter.   Inner-Iter.     Column Row Layer    Maximum-Head-Change  Column Row Layer    Maximum-Flux-Residual          L2-NORM 
          0                 1          10            23   41     2      -0.4061821247E+01      53  105    3         0.4652870370E+05      0.4675467224E+06
          0                 2           9            14   22     2      -0.1459564806E+01      61   92    2         0.2496879988E+05      0.5460581375E+05
          0                 3           6            14   22     2       0.1379381874E+00      60   64    1         0.8372155972E+03      0.1294826976E+04
          0                 4           4            14   22     2       0.1087236662E-02      15   22    2        -0.5084602537E+01      0.6559541629E+01

    ------------------------------------------------
       NWT REQUIRED            4 OUTER ITERATIONS 
       AND A TOTAL OF         29 INNER ITERATIONS.
    ------------------------------------------------

 NO OUTPUT CONTROL FOR STRESS PERIOD   34   TIME STEP   11
 
 SOLVING FOR HEAD 
                                                   Max.-Head-Change                         Max.-Flux-Residual
  Residual-Control   Outer-Iter.   Inner-Iter.     Column Row Layer    Maximum-Head-Change  Column Row Layer    Maximum-Flux-Residual          L2-NORM 
          0                 1          10            53  106     3       0.2471806223E+01      53  105    3         0.4565728535E+05      0.4608546186E+06
          0                 2           9            53  106     3      -0.2252864793E+00      22   15    2         0.9328441427E+04      0.4768998349E+05
          0                 3           6            62   59     1      -0.3998780334E-01      62   59    1        -0.1846391175E+04      0.2322176141E+04
          0                 4           4            62   59     1      -0.3602762981E-02      62   59    1        -0.1662977101E+03      0.2010548440E+03

    ------------------------------------------------
       NWT REQUIRED            4 OUTER ITERATIONS 
       AND A TOTAL OF         29 INNER ITERATIONS.
    ------------------------------------------------

 OUTPUT CONTROL FOR STRESS PERIOD   34   TIME STEP   12
    SAVE BUDGET
 UBDSV1 SAVING "         STORAGE" ON UNIT  39 AT TIME STEP 12, STRESS PERIOD  34
 UBDSV2 SAVING "   CONSTANT HEAD" ON UNIT  39 AT TIME STEP 12, STRESS PERIOD  34
 UBDSV1 SAVING "FLOW RIGHT FACE " ON UNIT  39 AT TIME STEP 12, STRESS PERIOD  34
 UBDSV1 SAVING "FLOW FRONT FACE " ON UNIT  39 AT TIME STEP 12, STRESS PERIOD  34
 UBDSV1 SAVING "FLOW LOWER FACE " ON UNIT  39 AT TIME STEP 12, STRESS PERIOD  34
 UBDSV4 SAVING "           WELLS" ON UNIT  39 AT TIME STEP 12, STRESS PERIOD  34
 UBDSV3 SAVING "              ET" ON UNIT  39 AT TIME STEP 12, STRESS PERIOD  34
 UBDSV3 SAVING "        RECHARGE" ON UNIT  39 AT TIME STEP 12, STRESS PERIOD  34

 INTERPOLATION FOR HEAD OBS# 1833, ID 1988-35-4    CHANGED BECAUSE AT LEAST ONE
 NEIGHBORING CELL REQUIRED FOR INTERPOLATION IS DRY OR INACTIVE (OBS2BAS7SE)
1
  VOLUMETRIC BUDGET FOR ENTIRE MODEL AT END OF TIME STEP   12, STRESS PERIOD  34
  ------------------------------------------------------------------------------

     CUMULATIVE VOLUMES      L**3       RATES FOR THIS TIME STEP      L**3/T
     ------------------                 ------------------------

           IN:                                      IN:
           ---                                      ---
             STORAGE =217488064512.0000               STORAGE =    23387560.0000
       CONSTANT HEAD = 17545156608.0000         CONSTANT HEAD =     2123753.7500
               WELLS = 15221090304.0000                 WELLS =     1225525.0000
                  ET =           0.0000                    ET =           0.0000
            RECHARGE =211372703744.0000              RECHARGE =    22226804.0000

            TOTAL IN =461626998784.0000              TOTAL IN =    48963640.0000

          OUT:                                     OUT:
          ----                                     ----
             STORAGE = 26050551808.0000               STORAGE =     1581954.1250
       CONSTANT HEAD = 44276547584.0000         CONSTANT HEAD =     3175106.2500
               WELLS =379646312448.0000                 WELLS =    43495704.0000
                  ET = 11653178368.0000                    ET =      710904.8750
            RECHARGE =           0.0000              RECHARGE =           0.0000

           TOTAL OUT =461626605568.0000             TOTAL OUT =    48963672.0000

            IN - OUT =      393216.0000              IN - OUT =         -32.0000

 PERCENT DISCREPANCY =           0.00     PERCENT DISCREPANCY =          -0.00






         TIME SUMMARY AT END OF TIME STEP   12 IN STRESS PERIOD   34
                    SECONDS     MINUTES      HOURS       DAYS        YEARS
                    -----------------------------------------------------------
   TIME STEP LENGTH 2.62800E+06  43800.      730.00      30.417     8.32763E-02
 STRESS PERIOD TIME 3.15360E+07 5.25600E+05  8760.0      365.00     0.99932    
         TOTAL TIME 1.07300E+09 1.78834E+07 2.98056E+05  12419.      34.001    
1
1
                            STRESS PERIOD NO.   35, LENGTH =   365.0000    
                            -----------------------------------------------

                              NUMBER OF TIME STEPS =    12

                               MULTIPLIER FOR DELT =     1.000

                            INITIAL TIME STEP SIZE =   30.41667    

   1773 WELLS

 REUSING SURF FROM LAST STRESS PERIOD

 REUSING EVTR FROM LAST STRESS PERIOD

 REUSING EXDP FROM LAST STRESS PERIOD



                           RECHARGE
 READING ON UNIT   16 WITH FORMAT: (15F5.0)            


     63 TIME-VARIANT SPECIFIED-HEAD CELLS
 
 SOLVING FOR HEAD 
                                                   Max.-Head-Change                         Max.-Flux-Residual
  Residual-Control   Outer-Iter.   Inner-Iter.     Column Row Layer    Maximum-Head-Change  Column Row Layer    Maximum-Flux-Residual          L2-NORM 
          0                 1          11            62   87     3      -0.5200624939E+02      62   87    3        -0.2274211968E+06      0.1028470466E+07
          0                 2          10            91   67     1      -0.1046091907E+02      23   44    2        -0.1292537260E+06      0.1734672547E+06
          0                 3           8            91   67     1       0.8745364982E+00      91   67    2        -0.5955617760E+04      0.1134856356E+05
          0                 4           6            22   44     2       0.6333935821E-01      24   18    1        -0.4011844496E+03      0.4469241830E+03
          0                 5           5            22   44     2       0.6296658059E-02      24   18    1        -0.3607003605E+02      0.4126103594E+02

    ------------------------------------------------
       NWT REQUIRED            5 OUTER ITERATIONS 
       AND A TOTAL OF         40 INNER ITERATIONS.
    ------------------------------------------------

 NO OUTPUT CONTROL FOR STRESS PERIOD   35   TIME STEP    1
 
 SOLVING FOR HEAD 
                                                   Max.-Head-Change                         Max.-Flux-Residual
  Residual-Control   Outer-Iter.   Inner-Iter.     Column Row Layer    Maximum-Head-Change  Column Row Layer    Maximum-Flux-Residual          L2-NORM 
          0                 1          11            62   87     3      -0.4965537720E+01      58   85    3         0.9905644036E+05      0.6635340063E+06
          0                 2           9            23   46     2      -0.1342901961E+02      23   46    2        -0.2812112413E+05      0.7671366543E+05
          0                 3           7            23   46     2       0.1306468481E+01      23   46    2         0.3137975157E+04      0.5364392065E+04
          0                 4           5            23   46     2       0.9664982586E-02      59  100    1        -0.5699678382E+03      0.7989999766E+03

    ------------------------------------------------
       NWT REQUIRED            4 OUTER ITERATIONS 
       AND A TOTAL OF         32 INNER ITERATIONS.
    ------------------------------------------------

 NO OUTPUT CONTROL FOR STRESS PERIOD   35   TIME STEP    2
 
 SOLVING FOR HEAD 
                                                   Max.-Head-Change                         Max.-Flux-Residual
  Residual-Control   Outer-Iter.   Inner-Iter.     Column Row Layer    Maximum-Head-Change  Column Row Layer    Maximum-Flux-Residual          L2-NORM 
          0                 1          11            23   46     2      -0.1013477457E+02      58   85    3         0.7487347399E+05      0.5973780337E+06
          0                 2           9            24   47     2      -0.3081249880E+01      60   62    2         0.9322798070E+04      0.6111609065E+05
          0                 3           6            24   47     2       0.2479450722E+00      24   47    2         0.8686547798E+03      0.9453974290E+03
          0                 4           4            24   47     1       0.3043438622E-02      24   47    1         0.5147228822E+01      0.8451249238E+01

    ------------------------------------------------
       NWT REQUIRED            4 OUTER ITERATIONS 
       AND A TOTAL OF         30 INNER ITERATIONS.
    ------------------------------------------------

 NO OUTPUT CONTROL FOR STRESS PERIOD   35   TIME STEP    3
 
 SOLVING FOR HEAD 
                                                   Max.-Head-Change                         Max.-Flux-Residual
  Residual-Control   Outer-Iter.   Inner-Iter.     Column Row Layer    Maximum-Head-Change  Column Row Layer    Maximum-Flux-Residual          L2-NORM 
          0                 1          10            24   47     2      -0.2306915089E+01      58   85    3         0.5718541299E+05      0.5667163025E+06
          0                 2           9            77   64     1      -0.1161835539E+01      20   17    2         0.6779518579E+04      0.5747382829E+05
          0                 3           5            77   64     1       0.8571421606E-01      20   17    1        -0.2603376224E+03      0.4499199934E+03
          0                 4           3            77   64     1       0.1473779144E-02      20   17    1        -0.2343238077E+02      0.2362957690E+02

    ------------------------------------------------
       NWT REQUIRED            4 OUTER ITERATIONS 
       AND A TOTAL OF         27 INNER ITERATIONS.
    ------------------------------------------------

 NO OUTPUT CONTROL FOR STRESS PERIOD   35   TIME STEP    4
 
 SOLVING FOR HEAD 
                                                   Max.-Head-Change                         Max.-Flux-Residual
  Residual-Control   Outer-Iter.   Inner-Iter.     Column Row Layer    Maximum-Head-Change  Column Row Layer    Maximum-Flux-Residual          L2-NORM 
          0                 1          10            78   57     1      -0.2504586261E+01      89   66    1        -0.5041285072E+05      0.5480349291E+06
          0                 2           9            24   48     2      -0.2971081075E+01      24   48    2        -0.1047981978E+05      0.5691377909E+05
          0                 3           7            24   48     2       0.2394139020E+00      78   55    1        -0.6613067015E+04      0.6784177752E+04
          0                 4           4            78   55     1      -0.1426610459E-01      78   55    1        -0.5963989551E+03      0.5965543192E+03
          0                 5           3            78   55     1      -0.1282949620E-02      78   55    1        -0.5362625526E+02      0.5363658103E+02

    ------------------------------------------------
       NWT REQUIRED            5 OUTER ITERATIONS 
       AND A TOTAL OF         33 INNER ITERATIONS.
    ------------------------------------------------

 NO OUTPUT CONTROL FOR STRESS PERIOD   35   TIME STEP    5
 
 SOLVING FOR HEAD 
                                                   Max.-Head-Change                         Max.-Flux-Residual
  Residual-Control   Outer-Iter.   Inner-Iter.     Column Row Layer    Maximum-Head-Change  Column Row Layer    Maximum-Flux-Residual          L2-NORM 
          0                 1          10            24   48     2      -0.3086775198E+01      89   66    1        -0.4642347672E+05      0.5351723502E+06
          0                 2           9            78   55     1      -0.3645955543E+01      26   16    2         0.1245207491E+05      0.5775842913E+05
          0                 3           6            78   55     1       0.5566465315E+00      78   55    1         0.2097011651E+04      0.2638548111E+04
          0                 4           4            78   55     1       0.5309633208E-02      78   54    1        -0.7501792568E+02      0.9251827598E+02

    ------------------------------------------------
       NWT REQUIRED            4 OUTER ITERATIONS 
       AND A TOTAL OF         29 INNER ITERATIONS.
    ------------------------------------------------

 NO OUTPUT CONTROL FOR STRESS PERIOD   35   TIME STEP    6
 
 SOLVING FOR HEAD 
                                                   Max.-Head-Change                         Max.-Flux-Residual
  Residual-Control   Outer-Iter.   Inner-Iter.     Column Row Layer    Maximum-Head-Change  Column Row Layer    Maximum-Flux-Residual          L2-NORM 
          0                 1          10            53  105     3       0.1705110357E+01      89   66    1        -0.4286460247E+05      0.5255034917E+06
          0                 2           9            24   46     1      -0.4982280085E+00      42   32    1        -0.1400562351E+05      0.5574582460E+05
          0                 3           6            24   46     2       0.3834865744E-01      42   32    1         0.1368720817E+04      0.1925355016E+04
          0                 4           3            59   87     1       0.5972522368E-03      59   87    2         0.4392976508E+01      0.6589974491E+01

    ------------------------------------------------
       NWT REQUIRED            4 OUTER ITERATIONS 
       AND A TOTAL OF         28 INNER ITERATIONS.
    ------------------------------------------------

 NO OUTPUT CONTROL FOR STRESS PERIOD   35   TIME STEP    7
 
 SOLVING FOR HEAD 
                                                   Max.-Head-Change                         Max.-Flux-Residual
  Residual-Control   Outer-Iter.   Inner-Iter.     Column Row Layer    Maximum-Head-Change  Column Row Layer    Maximum-Flux-Residual          L2-NORM 
          0                 1          10            24   46     2      -0.3418833274E+01      88   65    1        -0.4084350247E+05      0.5177977680E+06
          0                 2           9            61   94     2       0.3504492289E+00      61   94    2         0.2496737174E+05      0.6144365735E+05
          0                 3           6            23   18     1      -0.2312183074E-01      23   18    1        -0.2299299018E+04      0.2670688235E+04
          0                 4           5            23   18     1      -0.2082364610E-02      23   18    1        -0.2070438661E+03      0.2092652226E+03

    ------------------------------------------------
       NWT REQUIRED            4 OUTER ITERATIONS 
       AND A TOTAL OF         30 INNER ITERATIONS.
    ------------------------------------------------

 NO OUTPUT CONTROL FOR STRESS PERIOD   35   TIME STEP    8
 
 SOLVING FOR HEAD 
                                                   Max.-Head-Change                         Max.-Flux-Residual
  Residual-Control   Outer-Iter.   Inner-Iter.     Column Row Layer    Maximum-Head-Change  Column Row Layer    Maximum-Flux-Residual          L2-NORM 
          0                 1          10            53  105     3       0.1591500054E+01      88   65    1        -0.3924209677E+05      0.5116890989E+06
          0                 2           9            61   94     1      -0.4843898476E+00      61   94    1        -0.1559315005E+05      0.5486330486E+05
          0                 3           6            61   94     1       0.4342484160E-01      61   94    1         0.1535373752E+04      0.1900457031E+04
          0                 4           3            85   85     2      -0.5386702367E-04      61   94    1         0.1758899361E+01      0.2002477702E+01

    ------------------------------------------------
       NWT REQUIRED            4 OUTER ITERATIONS 
       AND A TOTAL OF         28 INNER ITERATIONS.
    ------------------------------------------------

 NO OUTPUT CONTROL FOR STRESS PERIOD   35   TIME STEP    9
 
 SOLVING FOR HEAD 
                                                   Max.-Head-Change                         Max.-Flux-Residual
  Residual-Control   Outer-Iter.   Inner-Iter.     Column Row Layer    Maximum-Head-Change  Column Row Layer    Maximum-Flux-Residual          L2-NORM 
          0                 1          10            53  105     3       0.1537312667E+01      88   65    1        -0.3774476737E+05      0.5070700870E+06
          0                 2           9            24   44     2      -0.4369110901E+01      61   91    2         0.9057567094E+04      0.5216006508E+05
          0                 3           7            24   44     2       0.1716923720E+01      24   44    2         0.3821682166E+04      0.5134821987E+04
          0                 4           6            24   44     1       0.3329586522E-01      25   44    2        -0.1886105130E+03      0.1964994661E+03
          0                 5           3            25   44     1      -0.6477536848E-03      25   44    2        -0.1469648171E+02      0.1479053651E+02

    ------------------------------------------------
       NWT REQUIRED            5 OUTER ITERATIONS 
       AND A TOTAL OF         35 INNER ITERATIONS.
    ------------------------------------------------

 NO OUTPUT CONTROL FOR STRESS PERIOD   35   TIME STEP   10
 
 SOLVING FOR HEAD 
                                                   Max.-Head-Change                         Max.-Flux-Residual
  Residual-Control   Outer-Iter.   Inner-Iter.     Column Row Layer    Maximum-Head-Change  Column Row Layer    Maximum-Flux-Residual          L2-NORM 
          0                 1          10            53  105     3       0.1484970713E+01      88   65    1        -0.3634233159E+05      0.5024529685E+06
          0                 2           9            73   15     2      -0.6181053188E+00      61   93    2         0.2155109524E+05      0.5594958120E+05
          0                 3           6            61   93     1      -0.1164415918E+00      61   93    1        -0.9761815219E+04      0.9809384383E+04
          0                 4           4            61   93     1      -0.1050257181E-01      61   93    1        -0.8800519744E+03      0.8806657198E+03
          0                 5           3            61   93     1      -0.9444659013E-03      61   93    1        -0.7912822038E+02      0.7921136674E+02

    ------------------------------------------------
       NWT REQUIRED            5 OUTER ITERATIONS 
       AND A TOTAL OF         32 INNER ITERATIONS.
    ------------------------------------------------

 NO OUTPUT CONTROL FOR STRESS PERIOD   35   TIME STEP   11
 
 SOLVING FOR HEAD 
                                                   Max.-Head-Change                         Max.-Flux-Residual
  Residual-Control   Outer-Iter.   Inner-Iter.     Column Row Layer    Maximum-Head-Change  Column Row Layer    Maximum-Flux-Residual          L2-NORM 
          0                 1          10            53  105     3       0.1434509679E+01      88   65    1        -0.3502665591E+05      0.4979993167E+06
          0                 2           9            61   93     1      -0.3081212321E+00      61   93    1        -0.1131839222E+05      0.5210979970E+05
          0                 3           6            61   93     1       0.2764071593E-01      17   14    1        -0.1807737332E+04      0.2347134727E+04
          0                 4           5            17   14     1      -0.1262545732E-02      17   14    1        -0.1627765586E+03      0.1629368337E+03

    ------------------------------------------------
       NWT REQUIRED            4 OUTER ITERATIONS 
       AND A TOTAL OF         30 INNER ITERATIONS.
    ------------------------------------------------

 OUTPUT CONTROL FOR STRESS PERIOD   35   TIME STEP   12
    SAVE BUDGET
 UBDSV1 SAVING "         STORAGE" ON UNIT  39 AT TIME STEP 12, STRESS PERIOD  35
 UBDSV2 SAVING "   CONSTANT HEAD" ON UNIT  39 AT TIME STEP 12, STRESS PERIOD  35
 UBDSV1 SAVING "FLOW RIGHT FACE " ON UNIT  39 AT TIME STEP 12, STRESS PERIOD  35
 UBDSV1 SAVING "FLOW FRONT FACE " ON UNIT  39 AT TIME STEP 12, STRESS PERIOD  35
 UBDSV1 SAVING "FLOW LOWER FACE " ON UNIT  39 AT TIME STEP 12, STRESS PERIOD  35
 UBDSV4 SAVING "           WELLS" ON UNIT  39 AT TIME STEP 12, STRESS PERIOD  35
 UBDSV3 SAVING "              ET" ON UNIT  39 AT TIME STEP 12, STRESS PERIOD  35
 UBDSV3 SAVING "        RECHARGE" ON UNIT  39 AT TIME STEP 12, STRESS PERIOD  35
1
  VOLUMETRIC BUDGET FOR ENTIRE MODEL AT END OF TIME STEP   12, STRESS PERIOD  35
  ------------------------------------------------------------------------------

     CUMULATIVE VOLUMES      L**3       RATES FOR THIS TIME STEP      L**3/T
     ------------------                 ------------------------

           IN:                                      IN:
           ---                                      ---
             STORAGE =227439017984.0000               STORAGE =    26764924.0000
       CONSTANT HEAD = 18329411584.0000         CONSTANT HEAD =     2172373.2500
               WELLS = 15668410368.0000                 WELLS =     1225525.0000
                  ET =           0.0000                    ET =           0.0000
            RECHARGE =218452361216.0000              RECHARGE =    19396166.0000

            TOTAL IN =479889195008.0000              TOTAL IN =    49558992.0000

          OUT:                                     OUT:
          ----                                     ----
             STORAGE = 26464245760.0000               STORAGE =      774348.6250
       CONSTANT HEAD = 45412208640.0000         CONSTANT HEAD =     3072913.2500
               WELLS =396160598016.0000                 WELLS =    45244956.0000
                  ET = 11851568128.0000                    ET =      466789.6875
            RECHARGE =           0.0000              RECHARGE =           0.0000

           TOTAL OUT =479888637952.0000             TOTAL OUT =    49559004.0000

            IN - OUT =      557056.0000              IN - OUT =         -12.0000

 PERCENT DISCREPANCY =           0.00     PERCENT DISCREPANCY =          -0.00






         TIME SUMMARY AT END OF TIME STEP   12 IN STRESS PERIOD   35
                    SECONDS     MINUTES      HOURS       DAYS        YEARS
                    -----------------------------------------------------------
   TIME STEP LENGTH 2.62800E+06  43800.      730.00      30.417     8.32763E-02
 STRESS PERIOD TIME 3.15360E+07 5.25600E+05  8760.0      365.00     0.99932    
         TOTAL TIME 1.10454E+09 1.84090E+07 3.06817E+05  12784.      35.001    
1
1
                            STRESS PERIOD NO.   36, LENGTH =   365.0000    
                            -----------------------------------------------

                              NUMBER OF TIME STEPS =    12

                               MULTIPLIER FOR DELT =     1.000

                            INITIAL TIME STEP SIZE =   30.41667    

   1822 WELLS

 REUSING SURF FROM LAST STRESS PERIOD

 REUSING EVTR FROM LAST STRESS PERIOD

 REUSING EXDP FROM LAST STRESS PERIOD



                           RECHARGE
 READING ON UNIT   16 WITH FORMAT: (15F5.0)            


     63 TIME-VARIANT SPECIFIED-HEAD CELLS
 
 SOLVING FOR HEAD 
                                                   Max.-Head-Change                         Max.-Flux-Residual
  Residual-Control   Outer-Iter.   Inner-Iter.     Column Row Layer    Maximum-Head-Change  Column Row Layer    Maximum-Flux-Residual          L2-NORM 
          0                 1          11            63   96     3      -0.1353683121E+03      61   96    3         0.5276828134E+06      0.1556380244E+07
          0                 2          10            23   46     2      -0.1179242685E+02      23   46    2        -0.2978743255E+06      0.4291265560E+06
          0                 3           8            23   45     2       0.1804040714E+01      23   46    2        -0.1785295176E+05      0.2061826850E+05
          0                 4           7            23   45     2       0.2119501473E+00      23   47    2         0.4279400667E+03      0.9950313306E+03
          0                 5           6            23   45     2       0.2092611668E-01      23   47    2         0.3978293167E+02      0.9091528460E+02
          0                 6           4            23   45     2       0.2059967336E-02      23   45    2         0.3907009693E+01      0.8740244878E+01

    ------------------------------------------------
       NWT REQUIRED            6 OUTER ITERATIONS 
       AND A TOTAL OF         46 INNER ITERATIONS.
    ------------------------------------------------

 NO OUTPUT CONTROL FOR STRESS PERIOD   36   TIME STEP    1
 
 SOLVING FOR HEAD 
                                                   Max.-Head-Change                         Max.-Flux-Residual
  Residual-Control   Outer-Iter.   Inner-Iter.     Column Row Layer    Maximum-Head-Change  Column Row Layer    Maximum-Flux-Residual          L2-NORM 
          0                 1          10            63   96     3      -0.2447676159E+02      58  110    1        -0.2221023916E+06      0.8185324052E+06
          0                 2           9            23   40     2      -0.1753321466E+01      19   72    3         0.3447081294E+05      0.9103526880E+05
          0                 3           6            53  117     1      -0.2402194990E+00      53  117    1        -0.1400237435E+05      0.1403092490E+05
          0                 4           5            53  117     1      -0.2174949871E-01      53  117    1        -0.1266141390E+04      0.1266291798E+04
          0                 5           4            53  117     1      -0.1956562060E-02      53  117    1        -0.1138748632E+03      0.1138882259E+03

    ------------------------------------------------
       NWT REQUIRED            5 OUTER ITERATIONS 
       AND A TOTAL OF         34 INNER ITERATIONS.
    ------------------------------------------------

 NO OUTPUT CONTROL FOR STRESS PERIOD   36   TIME STEP    2

 INTERPOLATION FOR HEAD OBS# 1740, ID 2615-36-64   CHANGED BECAUSE AT LEAST ONE
 NEIGHBORING CELL REQUIRED FOR INTERPOLATION IS DRY OR INACTIVE (OBS2BAS7SE)

 INTERPOLATION FOR HEAD OBS# 8382, ID 1428-36-91   CHANGED BECAUSE AT LEAST ONE
 NEIGHBORING CELL REQUIRED FOR INTERPOLATION IS DRY OR INACTIVE (OBS2BAS7SE)
 
 SOLVING FOR HEAD 
                                                   Max.-Head-Change                         Max.-Flux-Residual
  Residual-Control   Outer-Iter.   Inner-Iter.     Column Row Layer    Maximum-Head-Change  Column Row Layer    Maximum-Flux-Residual          L2-NORM 
          0                 1          10            64   96     3      -0.9393073113E+01      62   94    1        -0.1402705163E+06      0.6997855625E+06
          0                 2           9            64   96     3       0.8411750856E+00      53  117    1        -0.1588803664E+05      0.7159282664E+05
          0                 3           6            53  117     1       0.6368915643E-01      53  117    1         0.1566224566E+04      0.1801904224E+04
          0                 4           4            17   13     1      -0.4622084816E-03      17   13    1        -0.6183324009E+02      0.6194904374E+02

    ------------------------------------------------
       NWT REQUIRED            4 OUTER ITERATIONS 
       AND A TOTAL OF         29 INNER ITERATIONS.
    ------------------------------------------------

 NO OUTPUT CONTROL FOR STRESS PERIOD   36   TIME STEP    3
 
 SOLVING FOR HEAD 
                                                   Max.-Head-Change                         Max.-Flux-Residual
  Residual-Control   Outer-Iter.   Inner-Iter.     Column Row Layer    Maximum-Head-Change  Column Row Layer    Maximum-Flux-Residual          L2-NORM 
          0                 1          10            65   96     3      -0.5691869620E+01      61   95    2        -0.1296861060E+06      0.6561725345E+06
          0                 2           9            58  119     1      -0.6238273053E+00      61   95    2         0.1284173219E+05      0.6861819886E+05
          0                 3           6            58  119     1       0.5459561300E-01      17   13    1         0.7424065205E+03      0.1187538046E+04
          0                 4           3            24   45     1       0.7462761709E-03      58  119    1         0.1382042903E+01      0.2773613334E+01

    ------------------------------------------------
       NWT REQUIRED            4 OUTER ITERATIONS 
       AND A TOTAL OF         28 INNER ITERATIONS.
    ------------------------------------------------

 NO OUTPUT CONTROL FOR STRESS PERIOD   36   TIME STEP    4
 
 SOLVING FOR HEAD 
                                                   Max.-Head-Change                         Max.-Flux-Residual
  Residual-Control   Outer-Iter.   Inner-Iter.     Column Row Layer    Maximum-Head-Change  Column Row Layer    Maximum-Flux-Residual          L2-NORM 
          0                 1          10            65   96     3      -0.3983130826E+01      61   95    2        -0.1087129052E+06      0.6268129987E+06
          0                 2           9            19   72     1      -0.7301866764E+00      80   57    2         0.1164534745E+05      0.6464239828E+05
          0                 3           6            19   72     2       0.6327489436E-01      45   29    1        -0.1311306890E+04      0.2093049988E+04
          0                 4           4            52  117     1      -0.2116990161E-02      45   29    1        -0.1180425186E+03      0.1606977385E+03

    ------------------------------------------------
       NWT REQUIRED            4 OUTER ITERATIONS 
       AND A TOTAL OF         29 INNER ITERATIONS.
    ------------------------------------------------

 NO OUTPUT CONTROL FOR STRESS PERIOD   36   TIME STEP    5

 INTERPOLATION FOR HEAD OBS# 6307, ID 773-36-156   CHANGED BECAUSE AT LEAST ONE
 NEIGHBORING CELL REQUIRED FOR INTERPOLATION IS DRY OR INACTIVE (OBS2BAS7SE)
 
 SOLVING FOR HEAD 
                                                   Max.-Head-Change                         Max.-Flux-Residual
  Residual-Control   Outer-Iter.   Inner-Iter.     Column Row Layer    Maximum-Head-Change  Column Row Layer    Maximum-Flux-Residual          L2-NORM 
          0                 1          10            62   96     3      -0.3258671711E+01      61   95    2        -0.9437278030E+05      0.6076413396E+06
          0                 2           9            52  117     1      -0.7095578063E+00      52  117    1        -0.1109242329E+05      0.6252021051E+05
          0                 3           6            52  117     1       0.6312745892E-01      52  117    1         0.1087699261E+04      0.1524717621E+04
          0                 4           3            52  117     1       0.1163662250E-03      52  117    1         0.1914221689E+01      0.2519450305E+01

    ------------------------------------------------
       NWT REQUIRED            4 OUTER ITERATIONS 
       AND A TOTAL OF         28 INNER ITERATIONS.
    ------------------------------------------------

 NO OUTPUT CONTROL FOR STRESS PERIOD   36   TIME STEP    6
 
 SOLVING FOR HEAD 
                                                   Max.-Head-Change                         Max.-Flux-Residual
  Residual-Control   Outer-Iter.   Inner-Iter.     Column Row Layer    Maximum-Head-Change  Column Row Layer    Maximum-Flux-Residual          L2-NORM 
          0                 1          10            62   96     3      -0.2976086322E+01      62   94    1        -0.8611391671E+05      0.5946152092E+06
          0                 2           9            62   96     3       0.2688707810E+00      62   94    1         0.8442567892E+04      0.6021568910E+05
          0                 3           5            63   96     3       0.3614753390E-01      81   45    1         0.3690648642E+03      0.3860456376E+03
          0                 4           2            85   85     2      -0.6419712049E-04      62   94    1        -0.1994848251E+00      0.3111302903E+00

    ------------------------------------------------
       NWT REQUIRED            4 OUTER ITERATIONS 
       AND A TOTAL OF         26 INNER ITERATIONS.
    ------------------------------------------------

 NO OUTPUT CONTROL FOR STRESS PERIOD   36   TIME STEP    7
 
 SOLVING FOR HEAD 
                                                   Max.-Head-Change                         Max.-Flux-Residual
  Residual-Control   Outer-Iter.   Inner-Iter.     Column Row Layer    Maximum-Head-Change  Column Row Layer    Maximum-Flux-Residual          L2-NORM 
          0                 1          10            62   96     3      -0.2721905601E+01      62   94    1        -0.8095808041E+05      0.5845008075E+06
          0                 2           9            63   96     3       0.1605644783E+01      63   96    3         0.2642184913E+05      0.6514634609E+05
          0                 3           5            64   28     1       0.2947374846E-01      64   28    1         0.4638627343E+03      0.7461661760E+03
          0                 4           2            89   65     1       0.1243761570E-03      89   65    1         0.1108092956E+01      0.1716849369E+01

    ------------------------------------------------
       NWT REQUIRED            4 OUTER ITERATIONS 
       AND A TOTAL OF         26 INNER ITERATIONS.
    ------------------------------------------------

 NO OUTPUT CONTROL FOR STRESS PERIOD   36   TIME STEP    8
 
 SOLVING FOR HEAD 
                                                   Max.-Head-Change                         Max.-Flux-Residual
  Residual-Control   Outer-Iter.   Inner-Iter.     Column Row Layer    Maximum-Head-Change  Column Row Layer    Maximum-Flux-Residual          L2-NORM 
          0                 1          10            62   96     3      -0.2386938262E+01      62   94    1        -0.7595666333E+05      0.5759155520E+06
          0                 2           9            62   96     3       0.2168014240E+00      38   25    2         0.8309516980E+04      0.5857250437E+05
          0                 3           5            71   19     2      -0.3688869609E-01      71   19    2        -0.1225980535E+04      0.1290461653E+04
          0                 4           3            71   19     2      -0.3320874652E-02      71   19    2        -0.1103528816E+03      0.1146289732E+03

    ------------------------------------------------
       NWT REQUIRED            4 OUTER ITERATIONS 
       AND A TOTAL OF         27 INNER ITERATIONS.
    ------------------------------------------------

 NO OUTPUT CONTROL FOR STRESS PERIOD   36   TIME STEP    9
 
 SOLVING FOR HEAD 
                                                   Max.-Head-Change                         Max.-Flux-Residual
  Residual-Control   Outer-Iter.   Inner-Iter.     Column Row Layer    Maximum-Head-Change  Column Row Layer    Maximum-Flux-Residual          L2-NORM 
          0                 1          10            62   96     3      -0.2160841905E+01      62   94    1        -0.7215983193E+05      0.5688060245E+06
          0                 2           9            71   19     2      -0.1118338848E+01      62   94    1         0.6992375053E+04      0.5728418931E+05
          0                 3           7            71   19     2       0.8925912828E-01      20   70    2         0.2259612794E+03      0.4078870124E+03
          0                 4           3            71   19     2       0.9910794102E-03      71   19    2         0.2479484702E+01      0.2641970076E+01

    ------------------------------------------------
       NWT REQUIRED            4 OUTER ITERATIONS 
       AND A TOTAL OF         29 INNER ITERATIONS.
    ------------------------------------------------

 NO OUTPUT CONTROL FOR STRESS PERIOD   36   TIME STEP   10
 
 SOLVING FOR HEAD 
                                                   Max.-Head-Change                         Max.-Flux-Residual
  Residual-Control   Outer-Iter.   Inner-Iter.     Column Row Layer    Maximum-Head-Change  Column Row Layer    Maximum-Flux-Residual          L2-NORM 
          0                 1          10            62   94     1      -0.2000642917E+01      62   94    1        -0.6919222158E+05      0.5629002886E+06
          0                 2           9            36   29     1      -0.2045085858E+00      36   25    2         0.7953075413E+04      0.5739540216E+05
          0                 3           6            77   65     1      -0.8617973522E-01      77   65    1        -0.3080386386E+04      0.3106560796E+04
          0                 4           4            77   65     1      -0.7763531829E-02      77   65    1        -0.2774294480E+03      0.2774632749E+03

    ------------------------------------------------
       NWT REQUIRED            4 OUTER ITERATIONS 
       AND A TOTAL OF         29 INNER ITERATIONS.
    ------------------------------------------------

 NO OUTPUT CONTROL FOR STRESS PERIOD   36   TIME STEP   11

 INTERPOLATION FOR HEAD OBS# 5694, ID 1168-36-335  CHANGED BECAUSE AT LEAST ONE
 NEIGHBORING CELL REQUIRED FOR INTERPOLATION IS DRY OR INACTIVE (OBS2BAS7SE)
 
 SOLVING FOR HEAD 
                                                   Max.-Head-Change                         Max.-Flux-Residual
  Residual-Control   Outer-Iter.   Inner-Iter.     Column Row Layer    Maximum-Head-Change  Column Row Layer    Maximum-Flux-Residual          L2-NORM 
          0                 1          10            62   94     1      -0.1942925806E+01      62   94    1        -0.6681755146E+05      0.5577076382E+06
          0                 2           9            77   65     1      -0.2126000980E+01      44   36    1        -0.8785432632E+04      0.5770620943E+05
          0                 3           6            77   65     1       0.1656058592E+00      44   36    1         0.8626316592E+03      0.1518130758E+04
          0                 4           4            77   65     1       0.2148880634E-02      79   54    2         0.4505274454E+03      0.4544261725E+03

    ------------------------------------------------
       NWT REQUIRED            4 OUTER ITERATIONS 
       AND A TOTAL OF         29 INNER ITERATIONS.
    ------------------------------------------------

 OUTPUT CONTROL FOR STRESS PERIOD   36   TIME STEP   12
    SAVE BUDGET
    SAVE HEAD FOR LAYERS:   1  2  3
 UBDSV1 SAVING "         STORAGE" ON UNIT  39 AT TIME STEP 12, STRESS PERIOD  36
 UBDSV2 SAVING "   CONSTANT HEAD" ON UNIT  39 AT TIME STEP 12, STRESS PERIOD  36
 UBDSV1 SAVING "FLOW RIGHT FACE " ON UNIT  39 AT TIME STEP 12, STRESS PERIOD  36
 UBDSV1 SAVING "FLOW FRONT FACE " ON UNIT  39 AT TIME STEP 12, STRESS PERIOD  36
 UBDSV1 SAVING "FLOW LOWER FACE " ON UNIT  39 AT TIME STEP 12, STRESS PERIOD  36
 UBDSV4 SAVING "           WELLS" ON UNIT  39 AT TIME STEP 12, STRESS PERIOD  36
 UBDSV3 SAVING "              ET" ON UNIT  39 AT TIME STEP 12, STRESS PERIOD  36
 UBDSV3 SAVING "        RECHARGE" ON UNIT  39 AT TIME STEP 12, STRESS PERIOD  36

 HEAD WILL BE SAVED ON UNIT   31 AT END OF TIME STEP   12, STRESS PERIOD   36
1
  VOLUMETRIC BUDGET FOR ENTIRE MODEL AT END OF TIME STEP   12, STRESS PERIOD  36
  ------------------------------------------------------------------------------

     CUMULATIVE VOLUMES      L**3       RATES FOR THIS TIME STEP      L**3/T
     ------------------                 ------------------------

           IN:                                      IN:
           ---                                      ---
             STORAGE =238202535936.0000               STORAGE =    28908206.0000
       CONSTANT HEAD = 19169970176.0000         CONSTANT HEAD =     2379583.7500
               WELLS = 16115730432.0000                 WELLS =     1225525.0000
                  ET =           0.0000                    ET =           0.0000
            RECHARGE =225606926336.0000              RECHARGE =    19601790.0000

            TOTAL IN =499095175168.0000              TOTAL IN =    52115104.0000

          OUT:                                     OUT:
          ----                                     ----
             STORAGE = 26790985728.0000               STORAGE =      500278.3438
       CONSTANT HEAD = 46485671936.0000         CONSTANT HEAD =     2878672.2500
               WELLS =413828186112.0000                 WELLS =    48404640.0000
                  ET = 11989690368.0000                    ET =      331074.7812
            RECHARGE =           0.0000              RECHARGE =           0.0000

           TOTAL OUT =499094519808.0000             TOTAL OUT =    52114668.0000

            IN - OUT =      655360.0000              IN - OUT =         436.0000

 PERCENT DISCREPANCY =           0.00     PERCENT DISCREPANCY =           0.00






         TIME SUMMARY AT END OF TIME STEP   12 IN STRESS PERIOD   36
                    SECONDS     MINUTES      HOURS       DAYS        YEARS
                    -----------------------------------------------------------
   TIME STEP LENGTH 2.62800E+06  43800.      730.00      30.417     8.32763E-02
 STRESS PERIOD TIME 3.15360E+07 5.25600E+05  8760.0      365.00     0.99932    
         TOTAL TIME 1.13608E+09 1.89346E+07 3.15577E+05  13149.      36.000    
1
1
                            STRESS PERIOD NO.   37, LENGTH =   366.0000    
                            -----------------------------------------------

                              NUMBER OF TIME STEPS =    12

                               MULTIPLIER FOR DELT =     1.000

                            INITIAL TIME STEP SIZE =   30.50000    

   1704 WELLS

 REUSING SURF FROM LAST STRESS PERIOD

 REUSING EVTR FROM LAST STRESS PERIOD

 REUSING EXDP FROM LAST STRESS PERIOD



                           RECHARGE
 READING ON UNIT   16 WITH FORMAT: (15F5.0)            


     63 TIME-VARIANT SPECIFIED-HEAD CELLS
 
 SOLVING FOR HEAD 
                                                   Max.-Head-Change                         Max.-Flux-Residual
  Residual-Control   Outer-Iter.   Inner-Iter.     Column Row Layer    Maximum-Head-Change  Column Row Layer    Maximum-Flux-Residual          L2-NORM 
          0                 1          11            62   87     3      -0.6323579524E+02      53  118    2         0.5909420682E+06      0.1289198008E+07
          0                 2          10            62   87     3       0.5806927094E+01      53  118    2        -0.5950018858E+05      0.1328526766E+06
          0                 3           6            50  115     2       0.1975115843E+00      60   65    1         0.1668950515E+04      0.2507856940E+04
          0                 4           4            50  115     2       0.2825462034E-02      79   54    2         0.6117802903E+03      0.6132920757E+03

    ------------------------------------------------
       NWT REQUIRED            4 OUTER ITERATIONS 
       AND A TOTAL OF         31 INNER ITERATIONS.
    ------------------------------------------------

 NO OUTPUT CONTROL FOR STRESS PERIOD   37   TIME STEP    1

 INTERPOLATION FOR HEAD OBS# 1762, ID 2498-37-34   CHANGED BECAUSE AT LEAST ONE
 NEIGHBORING CELL REQUIRED FOR INTERPOLATION IS DRY OR INACTIVE (OBS2BAS7SE)

 INTERPOLATION FOR HEAD OBS# 7000, ID 683-37-32    CHANGED BECAUSE AT LEAST ONE
 NEIGHBORING CELL REQUIRED FOR INTERPOLATION IS DRY OR INACTIVE (OBS2BAS7SE)

 INTERPOLATION FOR HEAD OBS# 7378, ID 451-37-32    CHANGED BECAUSE AT LEAST ONE
 NEIGHBORING CELL REQUIRED FOR INTERPOLATION IS DRY OR INACTIVE (OBS2BAS7SE)
 
 SOLVING FOR HEAD 
                                                   Max.-Head-Change                         Max.-Flux-Residual
  Residual-Control   Outer-Iter.   Inner-Iter.     Column Row Layer    Maximum-Head-Change  Column Row Layer    Maximum-Flux-Residual          L2-NORM 
          0                 1          10            69   63     3      -0.1011988125E+02      56   98    3        -0.2112912861E+06      0.7110729228E+06
          0                 2           9            69   63     3       0.9199430011E+00      56   98    3         0.2067940846E+05      0.7126420341E+05
          0                 3           5            51   44     1       0.6393608683E-02      79   54    2        -0.2058783125E+04      0.2076100324E+04
          0                 4           3            79   54     2      -0.1148276627E-03      79   54    2        -0.2055754458E+04      0.2055760956E+04
          0                 5           3            79   54     2      -0.1146107799E-03      79   54    2        -0.2052325653E+04      0.2052331469E+04
          0                 6           5            79   54     2      -0.6454344278E-01      79   54    2        -0.2048432916E+04      0.2048438714E+04
          0                 7           4            79   54     2       0.5867144666E-02      79   54    2         0.2135162658E+03      0.2174832414E+03

    ------------------------------------------------
       NWT REQUIRED            7 OUTER ITERATIONS 
       AND A TOTAL OF         39 INNER ITERATIONS.
    ------------------------------------------------

 NO OUTPUT CONTROL FOR STRESS PERIOD   37   TIME STEP    2
 
 SOLVING FOR HEAD 
                                                   Max.-Head-Change                         Max.-Flux-Residual
  Residual-Control   Outer-Iter.   Inner-Iter.     Column Row Layer    Maximum-Head-Change  Column Row Layer    Maximum-Flux-Residual          L2-NORM 
          0                 1          10            56   98     3      -0.8114050890E+01      56   98    3        -0.1886303609E+06      0.6190340882E+06
          0                 2           9            80   57     1      -0.7738695771E+00      56   98    3         0.1850855670E+05      0.6209015094E+05
          0                 3           6            30   41     2      -0.1162629924E+00      30   41    2        -0.2634776901E+04      0.2711907043E+04
          0                 4           5            30   41     1      -0.1069691929E-01      30   41    2        -0.2380651776E+03      0.2381818051E+03
          0                 5           4            30   41     1      -0.9800101492E-03      30   41    2        -0.2140993567E+02      0.2142402535E+02

    ------------------------------------------------
       NWT REQUIRED            5 OUTER ITERATIONS 
       AND A TOTAL OF         34 INNER ITERATIONS.
    ------------------------------------------------

 NO OUTPUT CONTROL FOR STRESS PERIOD   37   TIME STEP    3
 
 SOLVING FOR HEAD 
                                                   Max.-Head-Change                         Max.-Flux-Residual
  Residual-Control   Outer-Iter.   Inner-Iter.     Column Row Layer    Maximum-Head-Change  Column Row Layer    Maximum-Flux-Residual          L2-NORM 
          0                 1          10            56   98     3      -0.7326515476E+01      56   98    3        -0.1693854605E+06      0.5762271562E+06
          0                 2           9            30   41     2      -0.2598026164E+01      60   90    3         0.1770812951E+05      0.6127638017E+05
          0                 3           6            30   41     2       0.1657950717E+00      39   29    1         0.6281177571E+03      0.7749349329E+03
          0                 4           4            30   41     1       0.4415791846E-02      49   35    2        -0.5773260398E+01      0.9733971050E+01

    ------------------------------------------------
       NWT REQUIRED            4 OUTER ITERATIONS 
       AND A TOTAL OF         29 INNER ITERATIONS.
    ------------------------------------------------

 NO OUTPUT CONTROL FOR STRESS PERIOD   37   TIME STEP    4
 
 SOLVING FOR HEAD 
                                                   Max.-Head-Change                         Max.-Flux-Residual
  Residual-Control   Outer-Iter.   Inner-Iter.     Column Row Layer    Maximum-Head-Change  Column Row Layer    Maximum-Flux-Residual          L2-NORM 
          0                 1          10            56   98     3      -0.6647081778E+01      56   98    3        -0.1529090438E+06      0.5514818442E+06
          0                 2           9            51  103     3       0.3052769974E+01      62   94    2         0.4734936906E+05      0.7299536784E+05
          0                 3           5            51  103     3      -0.2775246223E+00      51  103    3        -0.3908318949E+03      0.4622454151E+03
          0                 4           2            85   85     2      -0.6891979474E-04      62   94    1        -0.1395350873E+01      0.1494878075E+01

    ------------------------------------------------
       NWT REQUIRED            4 OUTER ITERATIONS 
       AND A TOTAL OF         26 INNER ITERATIONS.
    ------------------------------------------------

 NO OUTPUT CONTROL FOR STRESS PERIOD   37   TIME STEP    5
 
 SOLVING FOR HEAD 
                                                   Max.-Head-Change                         Max.-Flux-Residual
  Residual-Control   Outer-Iter.   Inner-Iter.     Column Row Layer    Maximum-Head-Change  Column Row Layer    Maximum-Flux-Residual          L2-NORM 
          0                 1          10            51  103     3       0.1307682099E+02      56   98    3        -0.1387006687E+06      0.5340977189E+06
          0                 2           9            23   44     2      -0.1326378939E+01      56   98    3         0.1368304134E+05      0.5418544385E+05
          0                 3           5            23   44     2       0.1022756302E+00      23   44    2         0.1317486399E+03      0.1852075990E+03
          0                 4           3            23   44     2       0.1397441616E-02      35   26    1        -0.1802292556E+01      0.2780167871E+01

    ------------------------------------------------
       NWT REQUIRED            4 OUTER ITERATIONS 
       AND A TOTAL OF         27 INNER ITERATIONS.
    ------------------------------------------------

 NO OUTPUT CONTROL FOR STRESS PERIOD   37   TIME STEP    6
 
 SOLVING FOR HEAD 
                                                   Max.-Head-Change                         Max.-Flux-Residual
  Residual-Control   Outer-Iter.   Inner-Iter.     Column Row Layer    Maximum-Head-Change  Column Row Layer    Maximum-Flux-Residual          L2-NORM 
          0                 1          10            56   98     3      -0.5541885848E+01      56   98    3        -0.1263683435E+06      0.5226248869E+06
          0                 2           9            56   98     3       0.4932370187E+00      56   98    3         0.1248252030E+05      0.5470638076E+05
          0                 3           5            62   94     1       0.1072982746E-01      62   94    1         0.5759072796E+03      0.7305047882E+03
          0                 4           2            85   85     2      -0.7010675773E-04      35   26    1        -0.3241938502E+01      0.3303323034E+01

    ------------------------------------------------
       NWT REQUIRED            4 OUTER ITERATIONS 
       AND A TOTAL OF         26 INNER ITERATIONS.
    ------------------------------------------------

 NO OUTPUT CONTROL FOR STRESS PERIOD   37   TIME STEP    7
 
 SOLVING FOR HEAD 
                                                   Max.-Head-Change                         Max.-Flux-Residual
  Residual-Control   Outer-Iter.   Inner-Iter.     Column Row Layer    Maximum-Head-Change  Column Row Layer    Maximum-Flux-Residual          L2-NORM 
          0                 1          10            56   98     3      -0.5089448864E+01      56   98    3        -0.1156010456E+06      0.5130795776E+06
          0                 2           9            60   90     2      -0.1120829021E+01      56   98    3         0.1143163363E+05      0.5326708286E+05
          0                 3           6            60   90     2       0.9453176905E-01      60   90    2         0.1074143149E+04      0.1258916897E+04
          0                 4           2            60   90     1       0.7061100259E-03      35   26    1        -0.3888660699E+01      0.6304307941E+01

    ------------------------------------------------
       NWT REQUIRED            4 OUTER ITERATIONS 
       AND A TOTAL OF         27 INNER ITERATIONS.
    ------------------------------------------------

 NO OUTPUT CONTROL FOR STRESS PERIOD   37   TIME STEP    8
 
 SOLVING FOR HEAD 
                                                   Max.-Head-Change                         Max.-Flux-Residual
  Residual-Control   Outer-Iter.   Inner-Iter.     Column Row Layer    Maximum-Head-Change  Column Row Layer    Maximum-Flux-Residual          L2-NORM 
          0                 1          10            56   98     3      -0.4690222818E+01      56   98    3        -0.1061491446E+06      0.5074927435E+06
          0                 2           9            66  101     1      -0.9940577966E+00      60   87    3         0.2007555397E+05      0.5648720581E+05
          0                 3           7            15   23     2       0.2065797473E+00      35   25    1        -0.5214760467E+04      0.5515410340E+04
          0                 4           5            35   25     1      -0.5818983568E-02      35   25    1        -0.4700429120E+03      0.4859413005E+03

    ------------------------------------------------
       NWT REQUIRED            4 OUTER ITERATIONS 
       AND A TOTAL OF         31 INNER ITERATIONS.
    ------------------------------------------------

 NO OUTPUT CONTROL FOR STRESS PERIOD   37   TIME STEP    9
 
 SOLVING FOR HEAD 
                                                   Max.-Head-Change                         Max.-Flux-Residual
  Residual-Control   Outer-Iter.   Inner-Iter.     Column Row Layer    Maximum-Head-Change  Column Row Layer    Maximum-Flux-Residual          L2-NORM 
          0                 1          10            56   98     3      -0.4336350493E+01      56   98    3        -0.9781087161E+05      0.5015019811E+06
          0                 2           9            77   58     1      -0.1194806178E+01      61   84    1        -0.1496914554E+05      0.5537221044E+05
          0                 3           6            77   58     1       0.9817332687E-01      62   86    1         0.1640322607E+04      0.2511960816E+04
          0                 4           3            77   58     1       0.8562816581E-03      62   85    1        -0.1026602498E+02      0.1177677360E+02

    ------------------------------------------------
       NWT REQUIRED            4 OUTER ITERATIONS 
       AND A TOTAL OF         28 INNER ITERATIONS.
    ------------------------------------------------

 NO OUTPUT CONTROL FOR STRESS PERIOD   37   TIME STEP   10
 
 SOLVING FOR HEAD 
                                                   Max.-Head-Change                         Max.-Flux-Residual
  Residual-Control   Outer-Iter.   Inner-Iter.     Column Row Layer    Maximum-Head-Change  Column Row Layer    Maximum-Flux-Residual          L2-NORM 
          0                 1          10            56   98     3      -0.4021361700E+01      56   98    3        -0.9042147088E+05      0.4972965803E+06
          0                 2           9            56   98     3       0.3589680078E+00      65   45    2         0.1200398699E+05      0.5261099055E+05
          0                 3           5            13   85     1      -0.6023129299E-02      13   85    1        -0.2938361448E+03      0.4406048658E+03

    ------------------------------------------------
       NWT REQUIRED            3 OUTER ITERATIONS 
       AND A TOTAL OF         24 INNER ITERATIONS.
    ------------------------------------------------

 NO OUTPUT CONTROL FOR STRESS PERIOD   37   TIME STEP   11
 
 SOLVING FOR HEAD 
                                                   Max.-Head-Change                         Max.-Flux-Residual
  Residual-Control   Outer-Iter.   Inner-Iter.     Column Row Layer    Maximum-Head-Change  Column Row Layer    Maximum-Flux-Residual          L2-NORM 
          0                 1          10            56   98     3      -0.3739887853E+01      56   98    3        -0.8384533730E+05      0.4935040091E+06
          0                 2           9            24   43     2      -0.5536888288E+00      56   98    3         0.8318027485E+04      0.5129799749E+05
          0                 3           5            24   43     2       0.3999706402E-01      34   30    1         0.3735379701E+03      0.4494770488E+03
          0                 4           3            24   43     1       0.7557718342E-03      35   26    1        -0.6051919386E+01      0.6380141287E+01

    ------------------------------------------------
       NWT REQUIRED            4 OUTER ITERATIONS 
       AND A TOTAL OF         27 INNER ITERATIONS.
    ------------------------------------------------

 OUTPUT CONTROL FOR STRESS PERIOD   37   TIME STEP   12
    SAVE BUDGET
 UBDSV1 SAVING "         STORAGE" ON UNIT  39 AT TIME STEP 12, STRESS PERIOD  37
 UBDSV2 SAVING "   CONSTANT HEAD" ON UNIT  39 AT TIME STEP 12, STRESS PERIOD  37
 UBDSV1 SAVING "FLOW RIGHT FACE " ON UNIT  39 AT TIME STEP 12, STRESS PERIOD  37
 UBDSV1 SAVING "FLOW FRONT FACE " ON UNIT  39 AT TIME STEP 12, STRESS PERIOD  37
 UBDSV1 SAVING "FLOW LOWER FACE " ON UNIT  39 AT TIME STEP 12, STRESS PERIOD  37
 UBDSV4 SAVING "           WELLS" ON UNIT  39 AT TIME STEP 12, STRESS PERIOD  37
 UBDSV3 SAVING "              ET" ON UNIT  39 AT TIME STEP 12, STRESS PERIOD  37
 UBDSV3 SAVING "        RECHARGE" ON UNIT  39 AT TIME STEP 12, STRESS PERIOD  37

 INTERPOLATION FOR HEAD OBS# 7531, ID 269-38-4     CHANGED BECAUSE AT LEAST ONE
 NEIGHBORING CELL REQUIRED FOR INTERPOLATION IS DRY OR INACTIVE (OBS2BAS7SE)
1
  VOLUMETRIC BUDGET FOR ENTIRE MODEL AT END OF TIME STEP   12, STRESS PERIOD  37
  ------------------------------------------------------------------------------

     CUMULATIVE VOLUMES      L**3       RATES FOR THIS TIME STEP      L**3/T
     ------------------                 ------------------------

           IN:                                      IN:
           ---                                      ---
             STORAGE =247598006272.0000               STORAGE =    25124928.0000
       CONSTANT HEAD = 20035457024.0000         CONSTANT HEAD =     2360025.2500
               WELLS = 16564267008.0000                 WELLS =     1225525.0000
                  ET =           0.0000                    ET =           0.0000
            RECHARGE =233272475648.0000              RECHARGE =    20944132.0000

            TOTAL IN =517470224384.0000              TOTAL IN =    49654608.0000

          OUT:                                     OUT:
          ----                                     ----
             STORAGE = 27135303680.0000               STORAGE =      375257.2500
       CONSTANT HEAD = 47587643392.0000         CONSTANT HEAD =     3020831.0000
               WELLS =430631288832.0000                 WELLS =    45907988.0000
                  ET = 12115258368.0000                    ET =      350536.8125
            RECHARGE =           0.0000              RECHARGE =           0.0000

           TOTAL OUT =517469503488.0000             TOTAL OUT =    49654612.0000

            IN - OUT =      720896.0000              IN - OUT =          -4.0000

 PERCENT DISCREPANCY =           0.00     PERCENT DISCREPANCY =          -0.00






         TIME SUMMARY AT END OF TIME STEP   12 IN STRESS PERIOD   37
                    SECONDS     MINUTES      HOURS       DAYS        YEARS
                    -----------------------------------------------------------
   TIME STEP LENGTH 2.63520E+06  43920.      732.00      30.500     8.35044E-02
 STRESS PERIOD TIME 3.16224E+07 5.27040E+05  8784.0      366.00      1.0021    
         TOTAL TIME 1.16770E+09 1.94616E+07 3.24361E+05  13515.      37.002    
1
1
                            STRESS PERIOD NO.   38, LENGTH =   365.0000    
                            -----------------------------------------------

                              NUMBER OF TIME STEPS =    12

                               MULTIPLIER FOR DELT =     1.000

                            INITIAL TIME STEP SIZE =   30.41667    

   1682 WELLS

 REUSING SURF FROM LAST STRESS PERIOD

 REUSING EVTR FROM LAST STRESS PERIOD

 REUSING EXDP FROM LAST STRESS PERIOD



                           RECHARGE
 READING ON UNIT   16 WITH FORMAT: (15F5.0)            


     63 TIME-VARIANT SPECIFIED-HEAD CELLS
 
 SOLVING FOR HEAD 
                                                   Max.-Head-Change                         Max.-Flux-Residual
  Residual-Control   Outer-Iter.   Inner-Iter.     Column Row Layer    Maximum-Head-Change  Column Row Layer    Maximum-Flux-Residual          L2-NORM 
          0                 1          11            62   87     3       0.6291394720E+02      62   96    3         0.4399174417E+06      0.1265914428E+07
          0                 2          10            62   87     3      -0.5599840203E+01      20   18    1        -0.5038345012E+05      0.1544796428E+06
          0                 3           7            51  103     3       0.8395535975E+00      42   33    1         0.3649007830E+04      0.6281187680E+04
          0                 4           5            61   87     3       0.8205887207E-02      44   33    2         0.1282370256E+03      0.2424902232E+03

    ------------------------------------------------
       NWT REQUIRED            4 OUTER ITERATIONS 
       AND A TOTAL OF         33 INNER ITERATIONS.
    ------------------------------------------------

 NO OUTPUT CONTROL FOR STRESS PERIOD   38   TIME STEP    1
 
 SOLVING FOR HEAD 
                                                   Max.-Head-Change                         Max.-Flux-Residual
  Residual-Control   Outer-Iter.   Inner-Iter.     Column Row Layer    Maximum-Head-Change  Column Row Layer    Maximum-Flux-Residual          L2-NORM 
          0                 1          10            62   96     3       0.1782520086E+02      62   96    3         0.3491973136E+06      0.7382398140E+06
          0                 2           9            63   96     3      -0.2087710815E+01      62   86    1        -0.7281465700E+05      0.1043384701E+06
          0                 3           7            63   96     3       0.1212808561E+01      62   86    2         0.5247401420E+05      0.5704965706E+05
          0                 4           5            63   96     3       0.1091406444E+00      62   86    2         0.4722055387E+04      0.5135109288E+04
          0                 5           4            63   96     3       0.9812629689E-02      62   86    2         0.4245227782E+03      0.4616852290E+03

    ------------------------------------------------
       NWT REQUIRED            5 OUTER ITERATIONS 
       AND A TOTAL OF         35 INNER ITERATIONS.
    ------------------------------------------------

 NO OUTPUT CONTROL FOR STRESS PERIOD   38   TIME STEP    2
 
 SOLVING FOR HEAD 
                                                   Max.-Head-Change                         Max.-Flux-Residual
  Residual-Control   Outer-Iter.   Inner-Iter.     Column Row Layer    Maximum-Head-Change  Column Row Layer    Maximum-Flux-Residual          L2-NORM 
          0                 1          10            62   96     3       0.1550143733E+02      62   96    3         0.3017898091E+06      0.6087649358E+06
          0                 2           9            63   96     3       0.3496680666E+02      63   96    3         0.9724028802E+05      0.1179295879E+06
          0                 3           6            63   96     3      -0.3492143320E+01      63   96    3        -0.1129990917E+05      0.1255183279E+05
          0                 4           3            62   96     3       0.2573904649E-02      54  108    2        -0.8390074167E+02      0.1065184895E+03

    ------------------------------------------------
       NWT REQUIRED            4 OUTER ITERATIONS 
       AND A TOTAL OF         28 INNER ITERATIONS.
    ------------------------------------------------

 NO OUTPUT CONTROL FOR STRESS PERIOD   38   TIME STEP    3
 
 SOLVING FOR HEAD 
                                                   Max.-Head-Change                         Max.-Flux-Residual
  Residual-Control   Outer-Iter.   Inner-Iter.     Column Row Layer    Maximum-Head-Change  Column Row Layer    Maximum-Flux-Residual          L2-NORM 
          0                 1          10            62   96     3       0.1512285839E+02      62   96    3         0.2884488915E+06      0.5398050748E+06
          0                 2           9            62   96     3       0.5700795071E+02      62   96    3         0.1845250200E+06      0.1950259755E+06
          0                 3           7            62   96     3      -0.4164682009E+01      62   96    3        -0.1279483991E+05      0.1408556002E+05
          0                 4           3            54  108     2       0.2088717607E-02      54  108    2         0.4796972213E+01      0.7341664817E+01

    ------------------------------------------------
       NWT REQUIRED            4 OUTER ITERATIONS 
       AND A TOTAL OF         29 INNER ITERATIONS.
    ------------------------------------------------

 NO OUTPUT CONTROL FOR STRESS PERIOD   38   TIME STEP    4
 
 SOLVING FOR HEAD 
                                                   Max.-Head-Change                         Max.-Flux-Residual
  Residual-Control   Outer-Iter.   Inner-Iter.     Column Row Layer    Maximum-Head-Change  Column Row Layer    Maximum-Flux-Residual          L2-NORM 
          0                 1          10            62   96     3       0.3113084550E+02      62   96    3         0.8451724994E+05      0.4313640504E+06
          0                 2           9            62   96     3      -0.3444237848E+01      61   84    1        -0.1899921525E+05      0.4814690891E+05
          0                 3           5            57  103     2       0.1344603678E-01      57  103    2         0.8620692208E+02      0.1076184225E+03
          0                 4           2            57  103     1       0.1470350562E-03      61   85    1         0.4787910134E+00      0.1111489322E+01

    ------------------------------------------------
       NWT REQUIRED            4 OUTER ITERATIONS 
       AND A TOTAL OF         26 INNER ITERATIONS.
    ------------------------------------------------

 NO OUTPUT CONTROL FOR STRESS PERIOD   38   TIME STEP    5
 
 SOLVING FOR HEAD 
                                                   Max.-Head-Change                         Max.-Flux-Residual
  Residual-Control   Outer-Iter.   Inner-Iter.     Column Row Layer    Maximum-Head-Change  Column Row Layer    Maximum-Flux-Residual          L2-NORM 
          0                 1          10            63   96     3       0.5755112501E+01      62   86    1         0.6200220306E+05      0.3974650346E+06
          0                 2           9            63   96     3      -0.5156186494E+00      62   94    2         0.1808415248E+05      0.4371289900E+05
          0                 3           5            62   94     2      -0.4480124505E-01      62   94    2        -0.1782837896E+04      0.1836942854E+04
          0                 4           2            85   85     2      -0.7397866826E-04      58  110    2        -0.1017009845E+01      0.1254710085E+01

    ------------------------------------------------
       NWT REQUIRED            4 OUTER ITERATIONS 
       AND A TOTAL OF         26 INNER ITERATIONS.
    ------------------------------------------------

 NO OUTPUT CONTROL FOR STRESS PERIOD   38   TIME STEP    6
 
 SOLVING FOR HEAD 
                                                   Max.-Head-Change                         Max.-Flux-Residual
  Residual-Control   Outer-Iter.   Inner-Iter.     Column Row Layer    Maximum-Head-Change  Column Row Layer    Maximum-Flux-Residual          L2-NORM 
          0                 1          10            65   96     3       0.3088584896E+01      62   86    1         0.5288187069E+05      0.3780451595E+06
          0                 2           9            77   62     1      -0.8302168017E+00      62   86    1        -0.5473650386E+04      0.3821860939E+05
          0                 3           5            77   62     1       0.6787503235E-01      61   84    2        -0.3623338832E+03      0.4417788121E+03
          0                 4           2            77   62     1       0.6289112404E-03      77   62    1         0.1587466782E+01      0.1718898483E+01

    ------------------------------------------------
       NWT REQUIRED            4 OUTER ITERATIONS 
       AND A TOTAL OF         26 INNER ITERATIONS.
    ------------------------------------------------

 NO OUTPUT CONTROL FOR STRESS PERIOD   38   TIME STEP    7
 
 SOLVING FOR HEAD 
                                                   Max.-Head-Change                         Max.-Flux-Residual
  Residual-Control   Outer-Iter.   Inner-Iter.     Column Row Layer    Maximum-Head-Change  Column Row Layer    Maximum-Flux-Residual          L2-NORM 
          0                 1          10            65   96     3       0.2056476592E+01      62   94    1         0.5987411687E+05      0.3641654004E+06
          0                 2           9            79   54     1      -0.1375150609E+01      55   39    2         0.6594481788E+04      0.3713946538E+05
          0                 3           5            79   54     1       0.9916612459E-01      79   54    1         0.1509397491E+03      0.1641317969E+03
          0                 4           3            79   54     1       0.1887732232E-02      79   54    1         0.2830599618E+01      0.3101533985E+01

    ------------------------------------------------
       NWT REQUIRED            4 OUTER ITERATIONS 
       AND A TOTAL OF         27 INNER ITERATIONS.
    ------------------------------------------------

 NO OUTPUT CONTROL FOR STRESS PERIOD   38   TIME STEP    8
 
 SOLVING FOR HEAD 
                                                   Max.-Head-Change                         Max.-Flux-Residual
  Residual-Control   Outer-Iter.   Inner-Iter.     Column Row Layer    Maximum-Head-Change  Column Row Layer    Maximum-Flux-Residual          L2-NORM 
          0                 1          10            79   54     1      -0.2558098427E+01      62   94    1         0.5393717950E+05      0.3514368392E+06
          0                 2           9            24   41     2      -0.1185888646E+01      62   94    1        -0.5624716406E+04      0.3544424110E+05
          0                 3           6            24   41     2       0.8049605242E-01      58   41    2         0.2497635548E+03      0.3599713380E+03
          0                 4           4            24   41     1       0.1869337203E-02      24   41    1         0.2216872931E+01      0.3605873849E+01

    ------------------------------------------------
       NWT REQUIRED            4 OUTER ITERATIONS 
       AND A TOTAL OF         29 INNER ITERATIONS.
    ------------------------------------------------

 NO OUTPUT CONTROL FOR STRESS PERIOD   38   TIME STEP    9
 
 SOLVING FOR HEAD 
                                                   Max.-Head-Change                         Max.-Flux-Residual
  Residual-Control   Outer-Iter.   Inner-Iter.     Column Row Layer    Maximum-Head-Change  Column Row Layer    Maximum-Flux-Residual          L2-NORM 
          0                 1          10            62   94     1       0.1319790246E+01      62   94    1         0.4861540027E+05      0.3406296474E+06
          0                 2           9            62   94     1      -0.1230263973E+00      58   41    2         0.6470051520E+04      0.3478995256E+05
          0                 3           5            24   41     1       0.1095512741E-02      22   17    2        -0.3295436033E+02      0.5814313396E+02

    ------------------------------------------------
       NWT REQUIRED            3 OUTER ITERATIONS 
       AND A TOTAL OF         24 INNER ITERATIONS.
    ------------------------------------------------

 NO OUTPUT CONTROL FOR STRESS PERIOD   38   TIME STEP   10
 
 SOLVING FOR HEAD 
                                                   Max.-Head-Change                         Max.-Flux-Residual
  Residual-Control   Outer-Iter.   Inner-Iter.     Column Row Layer    Maximum-Head-Change  Column Row Layer    Maximum-Flux-Residual          L2-NORM 
          0                 1          10            62   94     1       0.1192842048E+01      62   94    1         0.4387678643E+05      0.3314821867E+06
          0                 2           9            82   61     1      -0.1690751345E+01      62   94    1        -0.4525387403E+04      0.3332930106E+05
          0                 3           5            82   61     1       0.1002082059E+00      20   18    1         0.2735039785E+03      0.3382363006E+03
          0                 4           2            82   61     1       0.3173961559E-02      61   93    1         0.5717504680E+01      0.6635572557E+01

    ------------------------------------------------
       NWT REQUIRED            4 OUTER ITERATIONS 
       AND A TOTAL OF         26 INNER ITERATIONS.
    ------------------------------------------------

 NO OUTPUT CONTROL FOR STRESS PERIOD   38   TIME STEP   11
 
 SOLVING FOR HEAD 
                                                   Max.-Head-Change                         Max.-Flux-Residual
  Residual-Control   Outer-Iter.   Inner-Iter.     Column Row Layer    Maximum-Head-Change  Column Row Layer    Maximum-Flux-Residual          L2-NORM 
          0                 1          10            82   61     1      -0.3058177861E+01      62   94    1         0.3967142384E+05      0.3237137942E+06
          0                 2           9            64  109     1      -0.5047767823E+00      62   94    1        -0.4074094622E+04      0.3255067310E+05
          0                 3           5            64  109     1       0.4287569144E-01      64  109    1         0.1748694446E+03      0.2147673481E+03
          0                 4           2            64  109     1       0.2557020813E-03      35   26    1        -0.1560370773E+01      0.1881776178E+01

    ------------------------------------------------
       NWT REQUIRED            4 OUTER ITERATIONS 
       AND A TOTAL OF         26 INNER ITERATIONS.
    ------------------------------------------------

 OUTPUT CONTROL FOR STRESS PERIOD   38   TIME STEP   12
    SAVE BUDGET
 UBDSV1 SAVING "         STORAGE" ON UNIT  39 AT TIME STEP 12, STRESS PERIOD  38
 UBDSV2 SAVING "   CONSTANT HEAD" ON UNIT  39 AT TIME STEP 12, STRESS PERIOD  38
 UBDSV1 SAVING "FLOW RIGHT FACE " ON UNIT  39 AT TIME STEP 12, STRESS PERIOD  38
 UBDSV1 SAVING "FLOW FRONT FACE " ON UNIT  39 AT TIME STEP 12, STRESS PERIOD  38
 UBDSV1 SAVING "FLOW LOWER FACE " ON UNIT  39 AT TIME STEP 12, STRESS PERIOD  38
 UBDSV4 SAVING "           WELLS" ON UNIT  39 AT TIME STEP 12, STRESS PERIOD  38
 UBDSV3 SAVING "              ET" ON UNIT  39 AT TIME STEP 12, STRESS PERIOD  38
 UBDSV3 SAVING "        RECHARGE" ON UNIT  39 AT TIME STEP 12, STRESS PERIOD  38
1
  VOLUMETRIC BUDGET FOR ENTIRE MODEL AT END OF TIME STEP   12, STRESS PERIOD  38
  ------------------------------------------------------------------------------

     CUMULATIVE VOLUMES      L**3       RATES FOR THIS TIME STEP      L**3/T
     ------------------                 ------------------------

           IN:                                      IN:
           ---                                      ---
             STORAGE =253831266304.0000               STORAGE =    15650186.0000
       CONSTANT HEAD = 20852936704.0000         CONSTANT HEAD =     2188321.7500
               WELLS = 17011587072.0000                 WELLS =     1225525.0000
                  ET =           0.0000                    ET =           0.0000
            RECHARGE =243659866112.0000              RECHARGE =    28458762.0000

            TOTAL IN =535355654144.0000              TOTAL IN =    47522796.0000

          OUT:                                     OUT:
          ----                                     ----
             STORAGE = 28508434432.0000               STORAGE =     2243611.5000
       CONSTANT HEAD = 48712302592.0000         CONSTANT HEAD =     3094141.2500
               WELLS =445872832512.0000                 WELLS =    41757108.0000
                  ET = 12261411840.0000                    ET =      427936.0312
            RECHARGE =           0.0000              RECHARGE =           0.0000

           TOTAL OUT =535354998784.0000             TOTAL OUT =    47522796.0000

            IN - OUT =      655360.0000              IN - OUT =           0.0000

 PERCENT DISCREPANCY =           0.00     PERCENT DISCREPANCY =           0.00






         TIME SUMMARY AT END OF TIME STEP   12 IN STRESS PERIOD   38
                    SECONDS     MINUTES      HOURS       DAYS        YEARS
                    -----------------------------------------------------------
   TIME STEP LENGTH 2.62800E+06  43800.      730.00      30.417     8.32763E-02
 STRESS PERIOD TIME 3.15360E+07 5.25600E+05  8760.0      365.00     0.99932    
         TOTAL TIME 1.19923E+09 1.99872E+07 3.33121E+05  13880.      38.001    
1
1
                            STRESS PERIOD NO.   39, LENGTH =   365.0000    
                            -----------------------------------------------

                              NUMBER OF TIME STEPS =    12

                               MULTIPLIER FOR DELT =     1.000

                            INITIAL TIME STEP SIZE =   30.41667    

   1607 WELLS

 REUSING SURF FROM LAST STRESS PERIOD

 REUSING EVTR FROM LAST STRESS PERIOD

 REUSING EXDP FROM LAST STRESS PERIOD



                           RECHARGE
 READING ON UNIT   16 WITH FORMAT: (15F5.0)            


     63 TIME-VARIANT SPECIFIED-HEAD CELLS
 
 SOLVING FOR HEAD 
                                                   Max.-Head-Change                         Max.-Flux-Residual
  Residual-Control   Outer-Iter.   Inner-Iter.     Column Row Layer    Maximum-Head-Change  Column Row Layer    Maximum-Flux-Residual          L2-NORM 
          0                 1          11            19   38     2       0.3924501680E+02      58  102    3         0.3486367758E+06      0.1285220291E+07
          0                 2          10            66  101     1      -0.1205898750E+02      66  101    1        -0.3236089943E+06      0.4288416364E+06
          0                 3           6            60   87     3      -0.7931763944E+00      60   87    3        -0.1022286254E+05      0.1236871688E+05
          0                 4           4            92   77     2      -0.5457487653E-02      59   87    3        -0.7670555848E+02      0.8568567095E+02

    ------------------------------------------------
       NWT REQUIRED            4 OUTER ITERATIONS 
       AND A TOTAL OF         31 INNER ITERATIONS.
    ------------------------------------------------

 NO OUTPUT CONTROL FOR STRESS PERIOD   39   TIME STEP    1
 
 SOLVING FOR HEAD 
                                                   Max.-Head-Change                         Max.-Flux-Residual
  Residual-Control   Outer-Iter.   Inner-Iter.     Column Row Layer    Maximum-Head-Change  Column Row Layer    Maximum-Flux-Residual          L2-NORM 
          0                 1          10            60   87     3       0.8132485164E+01      56  100    3        -0.1695529220E+06      0.7254753641E+06
          0                 2           9            60   87     3      -0.7423935303E+00      56  100    3         0.1684670676E+05      0.7363550176E+05
          0                 3           5            71   20     2       0.1788986193E-01      60   97    1        -0.9475309983E+03      0.1156369079E+04
          0                 4           3            60   97     1      -0.1276249150E-02      84   83    3        -0.5634233396E+03      0.5699907761E+03

    ------------------------------------------------
       NWT REQUIRED            4 OUTER ITERATIONS 
       AND A TOTAL OF         27 INNER ITERATIONS.
    ------------------------------------------------

 NO OUTPUT CONTROL FOR STRESS PERIOD   39   TIME STEP    2
 
 SOLVING FOR HEAD 
                                                   Max.-Head-Change                         Max.-Flux-Residual
  Residual-Control   Outer-Iter.   Inner-Iter.     Column Row Layer    Maximum-Head-Change  Column Row Layer    Maximum-Flux-Residual          L2-NORM 
          0                 1          10            56   98     3      -0.5975822916E+01      56   98    3        -0.1388250369E+06      0.6003557665E+06
          0                 2           9            58   72     1      -0.7231071894E+00      58   72    1        -0.3268245326E+05      0.6877783589E+05
          0                 3           6            58   72     2       0.2219125513E+00      58   72    2         0.1680310526E+05      0.1683669408E+05
          0                 4           4            58   72     2       0.1995894363E-01      58   72    2         0.1515389087E+04      0.1818945956E+04
          0                 5           3            58   72     2       0.1794374084E-02      84   83    3        -0.1001975413E+04      0.1011222636E+04
          0                 6           3            58   72     2       0.1611507337E-03      84   83    3        -0.1001373290E+04      0.1001448390E+04
          0                 7           3            84   83     3      -0.2503332870E-04      84   83    3        -0.1000768099E+04      0.1000768848E+04
          0                 8           3            84   83     3      -0.2501802290E-04      84   83    3        -0.1000159609E+04      0.1000159759E+04
          0                 9           3            84   83     3      -0.2500263557E-04      84   83    3        -0.9995477835E+03      0.9995479286E+03
          0                10           3            84   83     3      -0.2498716520E-04      84   83    3        -0.9989326641E+03      0.9989328091E+03
                                                   Max.-Head-Change                         Max.-Flux-Residual
  Residual-Control   Outer-Iter.   Inner-Iter.     Column Row Layer    Maximum-Head-Change  Column Row Layer    Maximum-Flux-Residual          L2-NORM 
          0                11           3            84   83     3      -0.2497161280E-04      84   83    3        -0.9983142633E+03      0.9983144082E+03
          0                12           3            84   83     3      -0.2495597986E-04      84   83    3        -0.9976925904E+03      0.9976927352E+03
          0                13           3            84   83     3      -0.2494026438E-04      84   83    3        -0.9970676542E+03      0.9970677989E+03
          0                14           3            84   83     3      -0.2492446787E-04      84   83    3        -0.9964394636E+03      0.9964396082E+03
          0                15           3            84   83     3      -0.2490859032E-04      84   83    3        -0.9958080276E+03      0.9958081722E+03
          0                16           3            84   83     3      -0.2489263223E-04      84   83    3        -0.9951733552E+03      0.9951734997E+03
          0                17           3            84   83     3      -0.2487659361E-04      84   83    3        -0.9945354554E+03      0.9945355999E+03
          0                18           3            84   83     3      -0.2486047396E-04      84   83    3        -0.9938943373E+03      0.9938944817E+03
          0                19           3            84   83     3      -0.2484427476E-04      84   83    3        -0.9932500101E+03      0.9932501544E+03
          0                20           3            84   83     3      -0.2482799504E-04      84   83    3        -0.9926024828E+03      0.9926026270E+03
                                                   Max.-Head-Change                         Max.-Flux-Residual
  Residual-Control   Outer-Iter.   Inner-Iter.     Column Row Layer    Maximum-Head-Change  Column Row Layer    Maximum-Flux-Residual          L2-NORM 
          0                21           3            84   83     3      -0.2481163727E-04      84   83    3        -0.9919517646E+03      0.9919519087E+03
          0                22           3            84   83     3      -0.2479519898E-04      84   83    3        -0.9912978648E+03      0.9912980088E+03
          0                23           3            84   83     3      -0.2477868164E-04      84   83    3        -0.9906407925E+03      0.9906409364E+03
          0                24           3            84   83     3      -0.2476208527E-04      84   83    3        -0.9899805571E+03      0.9899807009E+03
          0                25           3            84   83     3      -0.2474541037E-04      84   83    3        -0.9893171679E+03      0.9893173116E+03
          0                26           3            84   83     3      -0.2472865593E-04      84   83    3        -0.9886506343E+03      0.9886507779E+03
          0                27           3            84   83     3      -0.2471182496E-04      84   83    3        -0.9879809655E+03      0.9879811091E+03
          0                28           3            84   83     3      -0.2469491445E-04      84   83    3        -0.9873081711E+03      0.9873083146E+03
          0                29           3            84   83     3      -0.2467792791E-04      84   83    3        -0.9866322606E+03      0.9866324040E+03
          0                30           3            84   83     3      -0.2466086183E-04      84   83    3        -0.9859532433E+03      0.9859533866E+03
                                                   Max.-Head-Change                         Max.-Flux-Residual
  Residual-Control   Outer-Iter.   Inner-Iter.     Column Row Layer    Maximum-Head-Change  Column Row Layer    Maximum-Flux-Residual          L2-NORM 
          0                31           3            84   83     3      -0.2464371972E-04      84   83    3        -0.9852711289E+03      0.9852712721E+03
          0                32           3            84   83     3      -0.2462650008E-04      84   83    3        -0.9845859268E+03      0.9845860699E+03
          0                33           3            84   83     3      -0.2460920440E-04      84   83    3        -0.9838976468E+03      0.9838977898E+03
          0                34           3            84   83     3      -0.2459183119E-04      84   83    3        -0.9832062983E+03      0.9832064412E+03
          0                35           3            84   83     3      -0.2457438194E-04      84   83    3        -0.9825118910E+03      0.9825120339E+03
          0                36           3            84   83     3      -0.2455685666E-04      84   83    3        -0.9818144347E+03      0.9818145775E+03
          0                37           3            84   83     3      -0.2453925484E-04      84   83    3        -0.9811139391E+03      0.9811140817E+03
          0                38           3            84   83     3      -0.2452157849E-04      84   83    3        -0.9804104138E+03      0.9804105564E+03
          0                39           3            84   83     3      -0.2450382611E-04      84   83    3        -0.9797038688E+03      0.9797040113E+03
          0                40           3            84   83     3      -0.2448599920E-04      84   83    3        -0.9789943137E+03      0.9789944561E+03
                                                   Max.-Head-Change                         Max.-Flux-Residual
  Residual-Control   Outer-Iter.   Inner-Iter.     Column Row Layer    Maximum-Head-Change  Column Row Layer    Maximum-Flux-Residual          L2-NORM 
          0                41           3            84   83     3      -0.2446809725E-04      84   83    3        -0.9782817585E+03      0.9782819007E+03
          0                42           5            84   83     3      -0.3679612535E-01      84   83    3        -0.9775669587E+03      0.9775671008E+03
          0                43           4            84   83     3       0.3343906804E-02      84   83    3         0.1253185698E+03      0.1358976686E+03

    ------------------------------------------------
       NWT REQUIRED           43 OUTER ITERATIONS 
       AND A TOTAL OF        149 INNER ITERATIONS.
    ------------------------------------------------

 NO OUTPUT CONTROL FOR STRESS PERIOD   39   TIME STEP    3
 
 SOLVING FOR HEAD 
                                                   Max.-Head-Change                         Max.-Flux-Residual
  Residual-Control   Outer-Iter.   Inner-Iter.     Column Row Layer    Maximum-Head-Change  Column Row Layer    Maximum-Flux-Residual          L2-NORM 
          0                 1          10            56   98     3      -0.5398342390E+01      56   98    3        -0.1249546331E+06      0.5307143278E+06
          0                 2           9            75   59     1      -0.7330376774E+00      58  101    2        -0.2538673050E+05      0.5959213641E+05
          0                 3           5            75   59     1       0.6286719335E-01      58   72    2        -0.8863090974E+03      0.9387570138E+03
          0                 4           3            75   59     1       0.3254651958E-03      35   26    1         0.2800573528E+01      0.3326246637E+01

    ------------------------------------------------
       NWT REQUIRED            4 OUTER ITERATIONS 
       AND A TOTAL OF         27 INNER ITERATIONS.
    ------------------------------------------------

 NO OUTPUT CONTROL FOR STRESS PERIOD   39   TIME STEP    4
 
 SOLVING FOR HEAD 
                                                   Max.-Head-Change                         Max.-Flux-Residual
  Residual-Control   Outer-Iter.   Inner-Iter.     Column Row Layer    Maximum-Head-Change  Column Row Layer    Maximum-Flux-Residual          L2-NORM 
          0                 1          10            56   98     3      -0.4891594228E+01      81   46    1         0.1141288828E+06      0.4848078112E+06
          0                 2           9            80   69     1      -0.5123447367E+00      81   46    1        -0.1143830211E+05      0.4948110848E+05
          0                 3           5            80   69     1       0.4251619514E-01      58  101    3        -0.3333927449E+03      0.3965791891E+03
          0                 4           3            80   69     1       0.3369684215E-03      35   26    1         0.1459433779E+01      0.2017640547E+01

    ------------------------------------------------
       NWT REQUIRED            4 OUTER ITERATIONS 
       AND A TOTAL OF         27 INNER ITERATIONS.
    ------------------------------------------------

 NO OUTPUT CONTROL FOR STRESS PERIOD   39   TIME STEP    5
 
 SOLVING FOR HEAD 
                                                   Max.-Head-Change                         Max.-Flux-Residual
  Residual-Control   Outer-Iter.   Inner-Iter.     Column Row Layer    Maximum-Head-Change  Column Row Layer    Maximum-Flux-Residual          L2-NORM 
          0                 1          10            56   98     3      -0.4444481506E+01      81   46    1         0.1104854788E+06      0.4512854072E+06
          0                 2           9            56   98     3       0.3969576926E+00      81   46    1        -0.1107232120E+05      0.4630340753E+05
          0                 3           5            56   98     2       0.2838906006E-02      56   98    2         0.9512107758E+01      0.3126227571E+02

    ------------------------------------------------
       NWT REQUIRED            3 OUTER ITERATIONS 
       AND A TOTAL OF         24 INNER ITERATIONS.
    ------------------------------------------------

 NO OUTPUT CONTROL FOR STRESS PERIOD   39   TIME STEP    6

 INTERPOLATION FOR HEAD OBS# 7660, ID 191-39-212   CHANGED BECAUSE AT LEAST ONE
 NEIGHBORING CELL REQUIRED FOR INTERPOLATION IS DRY OR INACTIVE (OBS2BAS7SE)
 
 SOLVING FOR HEAD 
                                                   Max.-Head-Change                         Max.-Flux-Residual
  Residual-Control   Outer-Iter.   Inner-Iter.     Column Row Layer    Maximum-Head-Change  Column Row Layer    Maximum-Flux-Residual          L2-NORM 
          0                 1          10            56   98     3      -0.4048173614E+01      81   46    1         0.1069322161E+06      0.4248948111E+06
          0                 2           9            56   98     3       0.4557029283E+00      56   98    3         0.1214052259E+05      0.4440481970E+05
          0                 3           6            24   46     2      -0.2002778290E-01      59  101    2        -0.6047288222E+03      0.6912776739E+03
          0                 4           3            24   46     1      -0.2751346325E-03      24   46    1        -0.4214466214E+00      0.6019506798E+00

    ------------------------------------------------
       NWT REQUIRED            4 OUTER ITERATIONS 
       AND A TOTAL OF         28 INNER ITERATIONS.
    ------------------------------------------------

 NO OUTPUT CONTROL FOR STRESS PERIOD   39   TIME STEP    7
 
 SOLVING FOR HEAD 
                                                   Max.-Head-Change                         Max.-Flux-Residual
  Residual-Control   Outer-Iter.   Inner-Iter.     Column Row Layer    Maximum-Head-Change  Column Row Layer    Maximum-Flux-Residual          L2-NORM 
          0                 1          10            81   45     1       0.3505249017E+01      81   46    1         0.1034707821E+06      0.4024417066E+06
          0                 2           9            81   45     1      -0.3191086905E+00      81   46    1        -0.1036782485E+05      0.4125375234E+05
          0                 3           5            75   55     1       0.6736783837E-02      35   25    2         0.4094985898E+03      0.4123336280E+03

    ------------------------------------------------
       NWT REQUIRED            3 OUTER ITERATIONS 
       AND A TOTAL OF         24 INNER ITERATIONS.
    ------------------------------------------------

 NO OUTPUT CONTROL FOR STRESS PERIOD   39   TIME STEP    8
 
 SOLVING FOR HEAD 
                                                   Max.-Head-Change                         Max.-Flux-Residual
  Residual-Control   Outer-Iter.   Inner-Iter.     Column Row Layer    Maximum-Head-Change  Column Row Layer    Maximum-Flux-Residual          L2-NORM 
          0                 1          10            81   45     1       0.3375029371E+01      81   46    1         0.1001024466E+06      0.3837514971E+06
          0                 2           9            79   55     1      -0.3987056047E+01      19   72    2        -0.1017787173E+05      0.4085889216E+05
          0                 3           5            79   55     1       0.2520196672E+00      35   25    2        -0.6534692982E+03      0.8734535451E+03
          0                 4           2            79   55     1       0.6920041455E-02      79   55    1         0.7039156376E+01      0.7086001769E+01

    ------------------------------------------------
       NWT REQUIRED            4 OUTER ITERATIONS 
       AND A TOTAL OF         26 INNER ITERATIONS.
    ------------------------------------------------

 NO OUTPUT CONTROL FOR STRESS PERIOD   39   TIME STEP    9
 
 SOLVING FOR HEAD 
                                                   Max.-Head-Change                         Max.-Flux-Residual
  Residual-Control   Outer-Iter.   Inner-Iter.     Column Row Layer    Maximum-Head-Change  Column Row Layer    Maximum-Flux-Residual          L2-NORM 
          0                 1          10            81   45     1       0.3250586072E+01      81   46    1         0.9682792626E+05      0.3677670034E+06
          0                 2           9            81   45     1      -0.2958310966E+00      81   46    1        -0.9700838581E+04      0.3676657004E+05
          0                 3           5            56   98     2       0.1735331929E-02      15   39    3        -0.1012874620E+02      0.2488788894E+02

    ------------------------------------------------
       NWT REQUIRED            3 OUTER ITERATIONS 
       AND A TOTAL OF         24 INNER ITERATIONS.
    ------------------------------------------------

 NO OUTPUT CONTROL FOR STRESS PERIOD   39   TIME STEP   10
 
 SOLVING FOR HEAD 
                                                   Max.-Head-Change                         Max.-Flux-Residual
  Residual-Control   Outer-Iter.   Inner-Iter.     Column Row Layer    Maximum-Head-Change  Column Row Layer    Maximum-Flux-Residual          L2-NORM 
          0                 1          10            81   45     1       0.3131848344E+01      81   46    1         0.9365483849E+05      0.3538799406E+06
          0                 2           9            81   45     1      -0.2850367909E+00      81   46    1        -0.9382119033E+04      0.3541160905E+05
          0                 3           5            56   98     2       0.1531897727E-02      19   34    2        -0.1678801807E+02      0.2816821721E+02

    ------------------------------------------------
       NWT REQUIRED            3 OUTER ITERATIONS 
       AND A TOTAL OF         24 INNER ITERATIONS.
    ------------------------------------------------

 NO OUTPUT CONTROL FOR STRESS PERIOD   39   TIME STEP   11
 
 SOLVING FOR HEAD 
                                                   Max.-Head-Change                         Max.-Flux-Residual
  Residual-Control   Outer-Iter.   Inner-Iter.     Column Row Layer    Maximum-Head-Change  Column Row Layer    Maximum-Flux-Residual          L2-NORM 
          0                 1          10            81   45     1       0.3018455233E+01      81   46    1         0.9059027556E+05      0.3416970521E+06
          0                 2           9            80   45     1      -0.3663472396E+00      80   45    1        -0.1140203639E+05      0.3642299371E+05
          0                 3           5            73   98     2       0.2447649500E-02      73   98    2         0.8518766146E+01      0.2231712159E+02

    ------------------------------------------------
       NWT REQUIRED            3 OUTER ITERATIONS 
       AND A TOTAL OF         24 INNER ITERATIONS.
    ------------------------------------------------

 OUTPUT CONTROL FOR STRESS PERIOD   39   TIME STEP   12
    SAVE BUDGET
 UBDSV1 SAVING "         STORAGE" ON UNIT  39 AT TIME STEP 12, STRESS PERIOD  39
 UBDSV2 SAVING "   CONSTANT HEAD" ON UNIT  39 AT TIME STEP 12, STRESS PERIOD  39
 UBDSV1 SAVING "FLOW RIGHT FACE " ON UNIT  39 AT TIME STEP 12, STRESS PERIOD  39
 UBDSV1 SAVING "FLOW FRONT FACE " ON UNIT  39 AT TIME STEP 12, STRESS PERIOD  39
 UBDSV1 SAVING "FLOW LOWER FACE " ON UNIT  39 AT TIME STEP 12, STRESS PERIOD  39
 UBDSV4 SAVING "           WELLS" ON UNIT  39 AT TIME STEP 12, STRESS PERIOD  39
 UBDSV3 SAVING "              ET" ON UNIT  39 AT TIME STEP 12, STRESS PERIOD  39
 UBDSV3 SAVING "        RECHARGE" ON UNIT  39 AT TIME STEP 12, STRESS PERIOD  39
1
  VOLUMETRIC BUDGET FOR ENTIRE MODEL AT END OF TIME STEP   12, STRESS PERIOD  39
  ------------------------------------------------------------------------------

     CUMULATIVE VOLUMES      L**3       RATES FOR THIS TIME STEP      L**3/T
     ------------------                 ------------------------

           IN:                                      IN:
           ---                                      ---
             STORAGE =257857306624.0000               STORAGE =     9378847.0000
       CONSTANT HEAD = 21618540544.0000         CONSTANT HEAD =     2064896.3750
               WELLS = 17458898944.0000                 WELLS =     1225525.0000
                  ET =           0.0000                    ET =           0.0000
            RECHARGE =256320438272.0000              RECHARGE =    34686304.0000

            TOTAL IN =553255174144.0000              TOTAL IN =    47355572.0000

          OUT:                                     OUT:
          ----                                     ----
             STORAGE = 31569553408.0000               STORAGE =     6496659.0000
       CONSTANT HEAD = 49885020160.0000         CONSTANT HEAD =     3263394.5000
               WELLS =459284414464.0000                 WELLS =    36744220.0000
                  ET = 12515550208.0000                    ET =      851305.3750
            RECHARGE =           0.0000              RECHARGE =           0.0000

           TOTAL OUT =553254518784.0000             TOTAL OUT =    47355580.0000

            IN - OUT =      655360.0000              IN - OUT =          -8.0000

 PERCENT DISCREPANCY =           0.00     PERCENT DISCREPANCY =          -0.00






         TIME SUMMARY AT END OF TIME STEP   12 IN STRESS PERIOD   39
                    SECONDS     MINUTES      HOURS       DAYS        YEARS
                    -----------------------------------------------------------
   TIME STEP LENGTH 2.62800E+06  43800.      730.00      30.417     8.32763E-02
 STRESS PERIOD TIME 3.15360E+07 5.25600E+05  8760.0      365.00     0.99932    
         TOTAL TIME 1.23077E+09 2.05129E+07 3.41881E+05  14245.      39.001    
1
1
                            STRESS PERIOD NO.   40, LENGTH =   365.0000    
                            -----------------------------------------------

                              NUMBER OF TIME STEPS =    12

                               MULTIPLIER FOR DELT =     1.000

                            INITIAL TIME STEP SIZE =   30.41667    

   1595 WELLS

 REUSING SURF FROM LAST STRESS PERIOD

 REUSING EVTR FROM LAST STRESS PERIOD

 REUSING EXDP FROM LAST STRESS PERIOD



                           RECHARGE
 READING ON UNIT   16 WITH FORMAT: (15F5.0)            


     63 TIME-VARIANT SPECIFIED-HEAD CELLS
 
 SOLVING FOR HEAD 
                                                   Max.-Head-Change                         Max.-Flux-Residual
  Residual-Control   Outer-Iter.   Inner-Iter.     Column Row Layer    Maximum-Head-Change  Column Row Layer    Maximum-Flux-Residual          L2-NORM 
          0                 1          11            62   96     3      -0.7327845849E+02      62   85    3        -0.3688418524E+06      0.1214434155E+07
          0                 2          10            60   86     3       0.1000507977E+02      58  101    3         0.1017689182E+06      0.1888638274E+06
          0                 3           6            60   86     3      -0.1330431831E+01      60   86    3        -0.1638586407E+05      0.1773309698E+05
          0                 4           5            60   85     3      -0.1174257453E-01      59   86    3        -0.1503283839E+03      0.2553955171E+03
          0                 5           4            60   85     3      -0.1056549289E-02      60   85    3        -0.1181273782E+02      0.1812369014E+02

    ------------------------------------------------
       NWT REQUIRED            5 OUTER ITERATIONS 
       AND A TOTAL OF         36 INNER ITERATIONS.
    ------------------------------------------------

 NO OUTPUT CONTROL FOR STRESS PERIOD   40   TIME STEP    1
 
 SOLVING FOR HEAD 
                                                   Max.-Head-Change                         Max.-Flux-Residual
  Residual-Control   Outer-Iter.   Inner-Iter.     Column Row Layer    Maximum-Head-Change  Column Row Layer    Maximum-Flux-Residual          L2-NORM 
          0                 1          10            54  108     2      -0.1296699991E+02      56   99    3        -0.1308426802E+06      0.6135786562E+06
          0                 2           9            54  108     2       0.9548227576E+00      60   62    1        -0.2011293230E+05      0.6611269852E+05
          0                 3           6            21   19     1      -0.2392937267E-01      21   19    1        -0.2544311229E+04      0.2546851675E+04
          0                 4           5            21   19     1      -0.2157664749E-02      21   19    1        -0.2293274522E+03      0.2295962791E+03

    ------------------------------------------------
       NWT REQUIRED            4 OUTER ITERATIONS 
       AND A TOTAL OF         30 INNER ITERATIONS.
    ------------------------------------------------

 NO OUTPUT CONTROL FOR STRESS PERIOD   40   TIME STEP    2
 
 SOLVING FOR HEAD 
                                                   Max.-Head-Change                         Max.-Flux-Residual
  Residual-Control   Outer-Iter.   Inner-Iter.     Column Row Layer    Maximum-Head-Change  Column Row Layer    Maximum-Flux-Residual          L2-NORM 
          0                 1          10            56   99     3      -0.4766053713E+01      54  108    3        -0.1155244843E+06      0.4851400448E+06
          0                 2           9            56   99     3       0.4253845052E+00      21   19    1        -0.1209974512E+05      0.5055297282E+05
          0                 3           5            21   19     1       0.2001819960E-01      21   19    1         0.1200277513E+04      0.1306283303E+04
          0                 4           2            85   85     2      -0.7707041692E-04      21   19    1         0.8601394892E+00      0.9873860532E+00

    ------------------------------------------------
       NWT REQUIRED            4 OUTER ITERATIONS 
       AND A TOTAL OF         26 INNER ITERATIONS.
    ------------------------------------------------

 NO OUTPUT CONTROL FOR STRESS PERIOD   40   TIME STEP    3
 
 SOLVING FOR HEAD 
                                                   Max.-Head-Change                         Max.-Flux-Residual
  Residual-Control   Outer-Iter.   Inner-Iter.     Column Row Layer    Maximum-Head-Change  Column Row Layer    Maximum-Flux-Residual          L2-NORM 
          0                 1          10            56   99     3      -0.4149018076E+01      56   99    3        -0.9966821377E+05      0.4166403211E+06
          0                 2           9            58  101     2      -0.2416175983E+01      58  101    2        -0.1455447026E+05      0.4403053197E+05
          0                 3           5            58  101     2       0.1951620390E+00      58  101    2         0.1374629016E+04      0.1422648040E+04
          0                 4           3            58  101     1       0.2070873036E-02      58  101    2         0.6283350214E+01      0.9740078791E+01

    ------------------------------------------------
       NWT REQUIRED            4 OUTER ITERATIONS 
       AND A TOTAL OF         27 INNER ITERATIONS.
    ------------------------------------------------

 NO OUTPUT CONTROL FOR STRESS PERIOD   40   TIME STEP    4
 
 SOLVING FOR HEAD 
                                                   Max.-Head-Change                         Max.-Flux-Residual
  Residual-Control   Outer-Iter.   Inner-Iter.     Column Row Layer    Maximum-Head-Change  Column Row Layer    Maximum-Flux-Residual          L2-NORM 
          0                 1          10            56   99     3      -0.3638771301E+01      56   99    3        -0.8676904153E+05      0.3747504219E+06
          0                 2           8            58  101     2       0.4381442163E+00      56   99    3         0.8613004902E+04      0.3884247746E+05
          0                 3           5            56   74     1       0.2148537983E-01      61   60    2         0.8701777985E+03      0.9055284753E+03
          0                 4           3            61   60     2       0.1020492832E-02      61   60    2         0.7831074068E+02      0.7832848164E+02

    ------------------------------------------------
       NWT REQUIRED            4 OUTER ITERATIONS 
       AND A TOTAL OF         26 INNER ITERATIONS.
    ------------------------------------------------

 NO OUTPUT CONTROL FOR STRESS PERIOD   40   TIME STEP    5
 
 SOLVING FOR HEAD 
                                                   Max.-Head-Change                         Max.-Flux-Residual
  Residual-Control   Outer-Iter.   Inner-Iter.     Column Row Layer    Maximum-Head-Change  Column Row Layer    Maximum-Flux-Residual          L2-NORM 
          0                 1          10            56   99     3      -0.3209498209E+01      56   99    3        -0.7607356510E+05      0.3466172768E+06
          0                 2           8            56   99     3       0.2871854162E+00      56   99    3         0.7559025632E+04      0.3506281537E+05
          0                 3           5            61   60     2      -0.7540606474E-02      61   60    2        -0.3609886478E+03      0.3805877988E+03

    ------------------------------------------------
       NWT REQUIRED            3 OUTER ITERATIONS 
       AND A TOTAL OF         23 INNER ITERATIONS.
    ------------------------------------------------

 NO OUTPUT CONTROL FOR STRESS PERIOD   40   TIME STEP    6
 
 SOLVING FOR HEAD 
                                                   Max.-Head-Change                         Max.-Flux-Residual
  Residual-Control   Outer-Iter.   Inner-Iter.     Column Row Layer    Maximum-Head-Change  Column Row Layer    Maximum-Flux-Residual          L2-NORM 
          0                 1          10            56   99     3      -0.2845289886E+01      56   99    3        -0.6709362620E+05      0.3264030567E+06
          0                 2           8            56   99     3       0.2547540091E+00      13   12    2         0.1060175379E+05      0.3522033485E+05
          0                 3           5            79   53     1       0.1784864549E-01      79   53    1         0.5718563590E+02      0.7323943062E+02
          0                 4           2            79   53     1       0.2450302119E-03      79   53    1         0.7552156709E+00      0.8052251855E+00

    ------------------------------------------------
       NWT REQUIRED            4 OUTER ITERATIONS 
       AND A TOTAL OF         25 INNER ITERATIONS.
    ------------------------------------------------

 NO OUTPUT CONTROL FOR STRESS PERIOD   40   TIME STEP    7
 
 SOLVING FOR HEAD 
                                                   Max.-Head-Change                         Max.-Flux-Residual
  Residual-Control   Outer-Iter.   Inner-Iter.     Column Row Layer    Maximum-Head-Change  Column Row Layer    Maximum-Flux-Residual          L2-NORM 
          0                 1          10            56   99     3      -0.2533569199E+01      56   99    3        -0.5947469911E+05      0.3111746531E+06
          0                 2           8            56   99     3       0.2269629300E+00      15   13    1        -0.6090236389E+04      0.3167384139E+05
          0                 3           5            15   13     1       0.6571841034E-02      15   13    1         0.6040890008E+03      0.6394925807E+03

    ------------------------------------------------
       NWT REQUIRED            3 OUTER ITERATIONS 
       AND A TOTAL OF         23 INNER ITERATIONS.
    ------------------------------------------------

 NO OUTPUT CONTROL FOR STRESS PERIOD   40   TIME STEP    8
 
 SOLVING FOR HEAD 
                                                   Max.-Head-Change                         Max.-Flux-Residual
  Residual-Control   Outer-Iter.   Inner-Iter.     Column Row Layer    Maximum-Head-Change  Column Row Layer    Maximum-Flux-Residual          L2-NORM 
          0                 1          10            56   99     3      -0.2264896810E+01      56   99    3        -0.5295486518E+05      0.2994666325E+06
          0                 2           8            56   99     3       0.2029844879E+00      56   99    3         0.5273722694E+04      0.2996544748E+05
          0                 3           5            33   30     2       0.4704004551E-02      33   30    2         0.2734004674E+03      0.2815862694E+03

    ------------------------------------------------
       NWT REQUIRED            3 OUTER ITERATIONS 
       AND A TOTAL OF         23 INNER ITERATIONS.
    ------------------------------------------------

 NO OUTPUT CONTROL FOR STRESS PERIOD   40   TIME STEP    9
 
 SOLVING FOR HEAD 
                                                   Max.-Head-Change                         Max.-Flux-Residual
  Residual-Control   Outer-Iter.   Inner-Iter.     Column Row Layer    Maximum-Head-Change  Column Row Layer    Maximum-Flux-Residual          L2-NORM 
          0                 1          10            56   99     3      -0.2031986465E+01      56   99    3        -0.4733618564E+05      0.2899640091E+06
          0                 2           8            56   99     3       0.1821787306E+00      56   99    3         0.4716741385E+04      0.2922787926E+05
          0                 3           5            33   30     2      -0.3377850519E-02      20   18    2        -0.1995496346E+03      0.3143412810E+03

    ------------------------------------------------
       NWT REQUIRED            3 OUTER ITERATIONS 
       AND A TOTAL OF         23 INNER ITERATIONS.
    ------------------------------------------------

 NO OUTPUT CONTROL FOR STRESS PERIOD   40   TIME STEP   10
 
 SOLVING FOR HEAD 
                                                   Max.-Head-Change                         Max.-Flux-Residual
  Residual-Control   Outer-Iter.   Inner-Iter.     Column Row Layer    Maximum-Head-Change  Column Row Layer    Maximum-Flux-Residual          L2-NORM 
          0                 1          10            56   99     3      -0.1829094582E+01      56   99    3        -0.4246598798E+05      0.2821093475E+06
          0                 2           9            54  107     2      -0.5894997111E+00      59  101    2         0.8763261307E+04      0.2966623690E+05
          0                 3           4            54  107     2       0.4397867099E-01      54  107    3        -0.1154892958E+03      0.1578013023E+03
          0                 4           2            54  107     2       0.7184556680E-03      54  107    3        -0.1834188346E+01      0.2613109243E+01

    ------------------------------------------------
       NWT REQUIRED            4 OUTER ITERATIONS 
       AND A TOTAL OF         25 INNER ITERATIONS.
    ------------------------------------------------

 NO OUTPUT CONTROL FOR STRESS PERIOD   40   TIME STEP   11
 
 SOLVING FOR HEAD 
                                                   Max.-Head-Change                         Max.-Flux-Residual
  Residual-Control   Outer-Iter.   Inner-Iter.     Column Row Layer    Maximum-Head-Change  Column Row Layer    Maximum-Flux-Residual          L2-NORM 
          0                 1          10            54  107     2      -0.7041809087E+01      56   99    3        -0.3822298761E+05      0.2754797914E+06
          0                 2           9            54  107     2       0.5248365610E+00      60   61    1        -0.8268798832E+04      0.2894493639E+05
          0                 3           5            30   42     2       0.2210563824E-01      59  101    1         0.2416191804E+03      0.2602519489E+03
          0                 4           3            30   42     1       0.5574979270E-03      92   74    3         0.1700476341E+02      0.1707814220E+02

    ------------------------------------------------
       NWT REQUIRED            4 OUTER ITERATIONS 
       AND A TOTAL OF         27 INNER ITERATIONS.
    ------------------------------------------------

 OUTPUT CONTROL FOR STRESS PERIOD   40   TIME STEP   12
    SAVE BUDGET
 UBDSV1 SAVING "         STORAGE" ON UNIT  39 AT TIME STEP 12, STRESS PERIOD  40
 UBDSV2 SAVING "   CONSTANT HEAD" ON UNIT  39 AT TIME STEP 12, STRESS PERIOD  40
 UBDSV1 SAVING "FLOW RIGHT FACE " ON UNIT  39 AT TIME STEP 12, STRESS PERIOD  40
 UBDSV1 SAVING "FLOW FRONT FACE " ON UNIT  39 AT TIME STEP 12, STRESS PERIOD  40
 UBDSV1 SAVING "FLOW LOWER FACE " ON UNIT  39 AT TIME STEP 12, STRESS PERIOD  40
 UBDSV4 SAVING "           WELLS" ON UNIT  39 AT TIME STEP 12, STRESS PERIOD  40
 UBDSV3 SAVING "              ET" ON UNIT  39 AT TIME STEP 12, STRESS PERIOD  40
 UBDSV3 SAVING "        RECHARGE" ON UNIT  39 AT TIME STEP 12, STRESS PERIOD  40
1
  VOLUMETRIC BUDGET FOR ENTIRE MODEL AT END OF TIME STEP   12, STRESS PERIOD  40
  ------------------------------------------------------------------------------

     CUMULATIVE VOLUMES      L**3       RATES FOR THIS TIME STEP      L**3/T
     ------------------                 ------------------------

           IN:                                      IN:
           ---                                      ---
             STORAGE =262805471232.0000               STORAGE =    12220265.0000
       CONSTANT HEAD = 22420094976.0000         CONSTANT HEAD =     2262597.5000
               WELLS = 17906206720.0000                 WELLS =     1225525.0000
                  ET =           0.0000                    ET =           0.0000
            RECHARGE =266479370240.0000              RECHARGE =    27832940.0000

            TOTAL IN =569611124736.0000              TOTAL IN =    43541328.0000

          OUT:                                     OUT:
          ----                                     ----
             STORAGE = 32737003520.0000               STORAGE =     2127583.0000
       CONSTANT HEAD = 50975477760.0000         CONSTANT HEAD =     2868549.2500
               WELLS =473147244544.0000                 WELLS =    37980848.0000
                  ET = 12750688256.0000                    ET =      564336.9375
            RECHARGE =           0.0000              RECHARGE =           0.0000

           TOTAL OUT =569610403840.0000             TOTAL OUT =    43541316.0000

            IN - OUT =      720896.0000              IN - OUT =          12.0000

 PERCENT DISCREPANCY =           0.00     PERCENT DISCREPANCY =           0.00






         TIME SUMMARY AT END OF TIME STEP   12 IN STRESS PERIOD   40
                    SECONDS     MINUTES      HOURS       DAYS        YEARS
                    -----------------------------------------------------------
   TIME STEP LENGTH 2.62800E+06  43800.      730.00      30.417     8.32763E-02
 STRESS PERIOD TIME 3.15360E+07 5.25600E+05  8760.0      365.00     0.99932    
         TOTAL TIME 1.26231E+09 2.10385E+07 3.50641E+05  14610.      40.000    
1
1
                            STRESS PERIOD NO.   41, LENGTH =   366.0000    
                            -----------------------------------------------

                              NUMBER OF TIME STEPS =    12

                               MULTIPLIER FOR DELT =     1.000

                            INITIAL TIME STEP SIZE =   30.50000    

   1614 WELLS

 REUSING SURF FROM LAST STRESS PERIOD

 REUSING EVTR FROM LAST STRESS PERIOD

 REUSING EXDP FROM LAST STRESS PERIOD



                           RECHARGE
 READING ON UNIT   16 WITH FORMAT: (15F5.0)            


     63 TIME-VARIANT SPECIFIED-HEAD CELLS
 
 SOLVING FOR HEAD 
                                                   Max.-Head-Change                         Max.-Flux-Residual
  Residual-Control   Outer-Iter.   Inner-Iter.     Column Row Layer    Maximum-Head-Change  Column Row Layer    Maximum-Flux-Residual          L2-NORM 
          0                 1          11            62   87     3      -0.4507784817E+02      56   98    3         0.3650822811E+06      0.1320810111E+07
          0                 2           9            55  108     3       0.4873551467E+01      55  108    3         0.2293111251E+06      0.2926840742E+06
          0                 3           6            65    2     2      -0.7604427605E-01      54  108    3        -0.7604356899E+03      0.1434785136E+04
          0                 4           5            65    2     2      -0.4404946416E-02      86   65    2        -0.1398636712E+03      0.1992371585E+03

    ------------------------------------------------
       NWT REQUIRED            4 OUTER ITERATIONS 
       AND A TOTAL OF         31 INNER ITERATIONS.
    ------------------------------------------------

 NO OUTPUT CONTROL FOR STRESS PERIOD   41   TIME STEP    1
 
 SOLVING FOR HEAD 
                                                   Max.-Head-Change                         Max.-Flux-Residual
  Residual-Control   Outer-Iter.   Inner-Iter.     Column Row Layer    Maximum-Head-Change  Column Row Layer    Maximum-Flux-Residual          L2-NORM 
          0                 1          10            56   98     3       0.1286518916E+02      56   98    3         0.3040022236E+06      0.8296418183E+06
          0                 2           9            23   46     2      -0.1112509945E+02      56   98    3        -0.2458464861E+05      0.8421669846E+05
          0                 3           7            23   46     2       0.9210235252E+00      57  103    2        -0.3820008175E+04      0.4598295194E+04
          0                 4           5            57  103     1      -0.1004479758E-01      57  103    2        -0.3443060326E+03      0.4983878314E+03
          0                 5           3            57  103     1      -0.9185231700E-03      86   65    2        -0.2620368355E+03      0.3595420344E+03

    ------------------------------------------------
       NWT REQUIRED            5 OUTER ITERATIONS 
       AND A TOTAL OF         34 INNER ITERATIONS.
    ------------------------------------------------

 NO OUTPUT CONTROL FOR STRESS PERIOD   41   TIME STEP    2
 
 SOLVING FOR HEAD 
                                                   Max.-Head-Change                         Max.-Flux-Residual
  Residual-Control   Outer-Iter.   Inner-Iter.     Column Row Layer    Maximum-Head-Change  Column Row Layer    Maximum-Flux-Residual          L2-NORM 
          0                 1          10            56   98     3       0.1194139059E+02      56   98    3         0.2723135450E+06      0.6946092121E+06
          0                 2           9            70   19     1      -0.1568816536E+01      70   19    1        -0.5776707656E+05      0.9164051765E+05
          0                 3           6            57  103     2       0.1167257296E+00      24   46    2        -0.9975194410E+03      0.1482692379E+04
          0                 4           4            24   46     1      -0.4258783998E-02      86   65    2        -0.3839595848E+03      0.5327797451E+03

    ------------------------------------------------
       NWT REQUIRED            4 OUTER ITERATIONS 
       AND A TOTAL OF         29 INNER ITERATIONS.
    ------------------------------------------------

 NO OUTPUT CONTROL FOR STRESS PERIOD   41   TIME STEP    3
 
 SOLVING FOR HEAD 
                                                   Max.-Head-Change                         Max.-Flux-Residual
  Residual-Control   Outer-Iter.   Inner-Iter.     Column Row Layer    Maximum-Head-Change  Column Row Layer    Maximum-Flux-Residual          L2-NORM 
          0                 1          10            56   98     3       0.1085064859E+02      56   98    3         0.2481337993E+06      0.6256094125E+06
          0                 2           9            55  108     2      -0.6585122051E+01      55  108    2        -0.3427598805E+05      0.7248811052E+05
          0                 3           6            55  108     2       0.5633635321E+00      55  108    2         0.3230125401E+04      0.3487477656E+04
          0                 4           4            55  108     2       0.3017705338E-02      86   65    2        -0.5049354056E+03      0.6904086882E+03

    ------------------------------------------------
       NWT REQUIRED            4 OUTER ITERATIONS 
       AND A TOTAL OF         29 INNER ITERATIONS.
    ------------------------------------------------

 NO OUTPUT CONTROL FOR STRESS PERIOD   41   TIME STEP    4
 
 SOLVING FOR HEAD 
                                                   Max.-Head-Change                         Max.-Flux-Residual
  Residual-Control   Outer-Iter.   Inner-Iter.     Column Row Layer    Maximum-Head-Change  Column Row Layer    Maximum-Flux-Residual          L2-NORM 
          0                 1          10            56   98     3       0.9840886534E+01      56   98    3         0.2255496973E+06      0.5813670174E+06
          0                 2           9            56   98     3      -0.9032291038E+00      56   98    3        -0.2314725946E+05      0.5919768174E+05
          0                 3           5            66   25     2      -0.3370188343E-01      66   25    2        -0.7946310006E+03      0.1004488713E+04
          0                 4           3            85   85     2      -0.8532295385E-04      92   74    3        -0.5830330574E+03      0.5830332795E+03

    ------------------------------------------------
       NWT REQUIRED            4 OUTER ITERATIONS 
       AND A TOTAL OF         27 INNER ITERATIONS.
    ------------------------------------------------

 NO OUTPUT CONTROL FOR STRESS PERIOD   41   TIME STEP    5
 
 SOLVING FOR HEAD 
                                                   Max.-Head-Change                         Max.-Flux-Residual
  Residual-Control   Outer-Iter.   Inner-Iter.     Column Row Layer    Maximum-Head-Change  Column Row Layer    Maximum-Flux-Residual          L2-NORM 
          0                 1          10            56   98     3       0.8912529126E+01      56   98    3         0.2046272874E+06      0.5501496392E+06
          0                 2           9            73   15     3       0.1282396233E+01      56   98    3        -0.2094614634E+05      0.5745809934E+05
          0                 3           6            73   15     3      -0.9304652819E-01      73   15    3        -0.7509091061E+03      0.1187297525E+04
          0                 4           4            22   17     1      -0.4761044655E-03      92   74    3        -0.6950928000E+03      0.6967619170E+03

    ------------------------------------------------
       NWT REQUIRED            4 OUTER ITERATIONS 
       AND A TOTAL OF         29 INNER ITERATIONS.
    ------------------------------------------------

 NO OUTPUT CONTROL FOR STRESS PERIOD   41   TIME STEP    6
 
 SOLVING FOR HEAD 
                                                   Max.-Head-Change                         Max.-Flux-Residual
  Residual-Control   Outer-Iter.   Inner-Iter.     Column Row Layer    Maximum-Head-Change  Column Row Layer    Maximum-Flux-Residual          L2-NORM 
          0                 1          10            56   98     3       0.8063985902E+01      56   98    3         0.1853789669E+06      0.5253811126E+06
          0                 2           9            56  105     2      -0.3147257009E+01      56   98    3        -0.1893137057E+05      0.5606449351E+05
          0                 3           5            56  105     2       0.2670066642E+00      56  105    2         0.1358387911E+04      0.1715811766E+04
          0                 4           3            56  105     2       0.1647801160E-02      92   74    3        -0.8069067847E+03      0.8069545102E+03

    ------------------------------------------------
       NWT REQUIRED            4 OUTER ITERATIONS 
       AND A TOTAL OF         27 INNER ITERATIONS.
    ------------------------------------------------

 NO OUTPUT CONTROL FOR STRESS PERIOD   41   TIME STEP    7
 
 SOLVING FOR HEAD 
                                                   Max.-Head-Change                         Max.-Flux-Residual
  Residual-Control   Outer-Iter.   Inner-Iter.     Column Row Layer    Maximum-Head-Change  Column Row Layer    Maximum-Flux-Residual          L2-NORM 
          0                 1          10            56   98     3       0.7292176227E+01      56   98    3         0.1677750298E+06      0.5059207935E+06
          0                 2           9            56   98     3      -0.6653869396E+00      56   98    3        -0.1709719065E+05      0.5149020322E+05
          0                 3           5            27   67     2       0.3575163043E-01      92   74    3        -0.9187386979E+03      0.9602795033E+03
          0                 4           3            27   67     2       0.1681488094E-03      92   74    3        -0.9184839792E+03      0.9184968303E+03
          0                 5           2            92   74     3      -0.1773312959E-04      92   74    3        -0.9182288857E+03      0.9182407935E+03
          0                 6           2            92   74     3      -0.1772812136E-04      92   74    3        -0.9179714976E+03      0.9179833954E+03
          0                 7           2            92   74     3      -0.1772307012E-04      92   74    3        -0.9177120330E+03      0.9177239214E+03
          0                 8           2            92   74     3      -0.1771797436E-04      92   74    3        -0.9174503258E+03      0.9174622050E+03
          0                 9           2            92   74     3      -0.1771283608E-04      92   74    3        -0.9171863623E+03      0.9171982323E+03
          0                10           2            92   74     3      -0.1770765378E-04      92   74    3        -0.9169201433E+03      0.9169320044E+03
                                                   Max.-Head-Change                         Max.-Flux-Residual
  Residual-Control   Outer-Iter.   Inner-Iter.     Column Row Layer    Maximum-Head-Change  Column Row Layer    Maximum-Flux-Residual          L2-NORM 
          0                11           2            92   74     3      -0.1770242795E-04      92   74    3        -0.9166516715E+03      0.9166635236E+03
          0                12           2            92   74     3      -0.1769716012E-04      92   74    3        -0.9163809496E+03      0.9163927928E+03
          0                13           2            92   74     3      -0.1769184676E-04      92   74    3        -0.9161079801E+03      0.9161198147E+03
          0                14           2            92   74     3      -0.1768649088E-04      92   74    3        -0.9158327660E+03      0.9158445919E+03
          0                15           2            92   74     3      -0.1768109198E-04      92   74    3        -0.9155553100E+03      0.9155671274E+03
          0                16           2            92   74     3      -0.1767564957E-04      92   74    3        -0.9152756148E+03      0.9152874238E+03
          0                17           2            92   74     3      -0.1767016413E-04      92   74    3        -0.9149936834E+03      0.9150054841E+03
          0                18           2            92   74     3      -0.1766463668E-04      92   74    3        -0.9147095185E+03      0.9147213110E+03
          0                19           2            92   74     3      -0.1765906520E-04      92   74    3        -0.9144231230E+03      0.9144349074E+03
          0                20           2            92   74     3      -0.1765344971E-04      92   74    3        -0.9141344998E+03      0.9141462761E+03
                                                   Max.-Head-Change                         Max.-Flux-Residual
  Residual-Control   Outer-Iter.   Inner-Iter.     Column Row Layer    Maximum-Head-Change  Column Row Layer    Maximum-Flux-Residual          L2-NORM 
          0                21           2            92   74     3      -0.1764779270E-04      92   74    3        -0.9138436518E+03      0.9138554202E+03
          0                22           2            92   74     3      -0.1764209167E-04      92   74    3        -0.9135505819E+03      0.9135623425E+03
          0                23           2            92   74     3      -0.1763634912E-04      92   74    3        -0.9132552931E+03      0.9132670460E+03
          0                24           2            92   74     3      -0.1763056255E-04      92   74    3        -0.9129577884E+03      0.9129695336E+03
          0                25           2            92   74     3      -0.1762473496E-04      92   74    3        -0.9126580707E+03      0.9126698083E+03
          0                26           2            92   74     3      -0.1761886285E-04      92   74    3        -0.9123561430E+03      0.9123678732E+03
          0                27           2            92   74     3      -0.1761295023E-04      92   74    3        -0.9120520083E+03      0.9120637312E+03
          0                28           2            92   74     3      -0.1760699258E-04      92   74    3        -0.9117456698E+03      0.9117573854E+03
          0                29           2            92   74     3      -0.1760099492E-04      92   74    3        -0.9114371305E+03      0.9114488389E+03
          0                30           2            92   74     3      -0.1759495424E-04      92   74    3        -0.9111263934E+03      0.9111380948E+03
                                                   Max.-Head-Change                         Max.-Flux-Residual
  Residual-Control   Outer-Iter.   Inner-Iter.     Column Row Layer    Maximum-Head-Change  Column Row Layer    Maximum-Flux-Residual          L2-NORM 
          0                31           2            92   74     3      -0.1758887004E-04      92   74    3        -0.9108134617E+03      0.9108251561E+03
          0                32           2            92   74     3      -0.1758274482E-04      92   74    3        -0.9104983386E+03      0.9105100260E+03
          0                33           2            92   74     3      -0.1757657608E-04      92   74    3        -0.9101810271E+03      0.9101927077E+03
          0                34           2            92   74     3      -0.1757036732E-04      92   74    3        -0.9098615304E+03      0.9098732043E+03
          0                35           2            92   74     3      -0.1756411355E-04      92   74    3        -0.9095398518E+03      0.9095515190E+03
          0                36           2            92   74     3      -0.1755781975E-04      92   74    3        -0.9092159944E+03      0.9092276551E+03
          0                37           2            92   74     3      -0.1755148294E-04      92   74    3        -0.9088899615E+03      0.9089016157E+03
          0                38           2            92   74     3      -0.1754510561E-04      92   74    3        -0.9085617563E+03      0.9085734042E+03
          0                39           2            92   74     3      -0.1753868526E-04      92   74    3        -0.9082313821E+03      0.9082430237E+03
          0                40           2            92   74     3      -0.1753222289E-04      92   74    3        -0.9078988422E+03      0.9079104776E+03
                                                   Max.-Head-Change                         Max.-Flux-Residual
  Residual-Control   Outer-Iter.   Inner-Iter.     Column Row Layer    Maximum-Head-Change  Column Row Layer    Maximum-Flux-Residual          L2-NORM 
          0                41           2            92   74     3      -0.1752572000E-04      92   74    3        -0.9075641400E+03      0.9075757692E+03
          0                42           2            92   74     3      -0.1751917359E-04      92   74    3        -0.9072272786E+03      0.9072389017E+03
          0                43           2            92   74     3      -0.1751258767E-04      92   74    3        -0.9068882616E+03      0.9068998787E+03
          0                44           2            92   74     3      -0.1750595973E-04      92   74    3        -0.9065470921E+03      0.9065587034E+03
          0                45           2            92   74     3      -0.1749928977E-04      92   74    3        -0.9062037738E+03      0.9062153792E+03
          0                46           2            92   74     3      -0.1749257879E-04      92   74    3        -0.9058583098E+03      0.9058699096E+03
          0                47           2            92   74     3      -0.1748582729E-04      92   74    3        -0.9055107038E+03      0.9055222978E+03
          0                48           2            92   74     3      -0.1747903277E-04      92   74    3        -0.9051609590E+03      0.9051725475E+03
          0                49           2            92   74     3      -0.1747219824E-04      92   74    3        -0.9048090791E+03      0.9048206621E+03
          0                50           2            92   74     3      -0.1746532219E-04      92   74    3        -0.9044550674E+03      0.9044666450E+03
                                                   Max.-Head-Change                         Max.-Flux-Residual
  Residual-Control   Outer-Iter.   Inner-Iter.     Column Row Layer    Maximum-Head-Change  Column Row Layer    Maximum-Flux-Residual          L2-NORM 
          0                51           2            92   74     3      -0.1745840511E-04      92   74    3        -0.9040989275E+03      0.9041104997E+03
          0                52           2            92   74     3      -0.1745144703E-04      92   74    3        -0.9037406629E+03      0.9037522299E+03
          0                53           2            92   74     3      -0.1744444842E-04      92   74    3        -0.9033802771E+03      0.9033918389E+03
          0                54           2            92   74     3      -0.1743740829E-04      92   74    3        -0.9030177737E+03      0.9030293304E+03
          0                55           2            92   74     3      -0.1743032815E-04      92   74    3        -0.9026531563E+03      0.9026647080E+03
          0                56           2            92   74     3      -0.1742320749E-04      92   74    3        -0.9022864285E+03      0.9022979753E+03
          0                57           2            92   74     3      -0.1741604481E-04      92   74    3        -0.9019175939E+03      0.9019291358E+03
          0                58           2            92   74     3      -0.1740884261E-04      92   74    3        -0.9015466561E+03      0.9015581931E+03
          0                59           2            92   74     3      -0.1740159889E-04      92   74    3        -0.9011736188E+03      0.9011851511E+03
          0                60           2            92   74     3      -0.1739431666E-04      92   74    3        -0.9007984857E+03      0.9008100133E+03
                                                   Max.-Head-Change                         Max.-Flux-Residual
  Residual-Control   Outer-Iter.   Inner-Iter.     Column Row Layer    Maximum-Head-Change  Column Row Layer    Maximum-Flux-Residual          L2-NORM 
          0                61           2            92   74     3      -0.1738699291E-04      92   74    3        -0.9004212603E+03      0.9004327834E+03
          0                62           2            92   74     3      -0.1737962964E-04      92   74    3        -0.9000419466E+03      0.9000534651E+03
          0                63           2            92   74     3      -0.1737222435E-04      92   74    3        -0.8996605480E+03      0.8996720621E+03
          0                64           2            92   74     3      -0.1736478055E-04      92   74    3        -0.8992770686E+03      0.8992885783E+03
          0                65           2            92   74     3      -0.1735729622E-04      92   74    3        -0.8988915118E+03      0.8989030173E+03
          0                66           2            92   74     3      -0.1734977138E-04      92   74    3        -0.8985038817E+03      0.8985153829E+03
          0                67           2            92   74     3      -0.1734220853E-04      92   74    3        -0.8981141819E+03      0.8981256789E+03
          0                68           2            92   74     3      -0.1733460315E-04      92   74    3        -0.8977224163E+03      0.8977339092E+03
          0                69           2            92   74     3      -0.1732695876E-04      92   74    3        -0.8973285887E+03      0.8973400775E+03
          0                70           2            92   74     3      -0.1731927584E-04      92   74    3        -0.8969327029E+03      0.8969441878E+03
                                                   Max.-Head-Change                         Max.-Flux-Residual
  Residual-Control   Outer-Iter.   Inner-Iter.     Column Row Layer    Maximum-Head-Change  Column Row Layer    Maximum-Flux-Residual          L2-NORM 
          0                71           2            92   74     3      -0.1731155342E-04      92   74    3        -0.8965347629E+03      0.8965462439E+03
          0                72           2            92   74     3      -0.1730378997E-04      92   74    3        -0.8961347724E+03      0.8961462497E+03
          0                73           2            92   74     3      -0.1729598851E-04      92   74    3        -0.8957327355E+03      0.8957442090E+03
          0                74           2            92   74     3      -0.1728814602E-04      92   74    3        -0.8953286560E+03      0.8953401258E+03
          0                75           2            92   74     3      -0.1728026653E-04      92   74    3        -0.8949225379E+03      0.8949340040E+03
          0                76           2            92   74     3      -0.1727234601E-04      92   74    3        -0.8945143850E+03      0.8945258476E+03
          0                77           2            92   74     3      -0.1726438547E-04      92   74    3        -0.8941042015E+03      0.8941156606E+03
          0                78           2            92   74     3      -0.1725638842E-04      92   74    3        -0.8936919912E+03      0.8937034469E+03
          0                79           2            92   74     3      -0.1724835086E-04      92   74    3        -0.8932777582E+03      0.8932892106E+03
          0                80           2            92   74     3      -0.1724027377E-04      92   74    3        -0.8928615066E+03      0.8928729556E+03
                                                   Max.-Head-Change                         Max.-Flux-Residual
  Residual-Control   Outer-Iter.   Inner-Iter.     Column Row Layer    Maximum-Head-Change  Column Row Layer    Maximum-Flux-Residual          L2-NORM 
          0                81           2            92   74     3      -0.1723215917E-04      92   74    3        -0.8924432402E+03      0.8924546861E+03
          0                82           2            92   74     3      -0.1722400555E-04      92   74    3        -0.8920229633E+03      0.8920344060E+03
          0                83           2            92   74     3      -0.1721581291E-04      92   74    3        -0.8916006798E+03      0.8916121194E+03
          0                84           2            92   74     3      -0.1720758176E-04      92   74    3        -0.8911763939E+03      0.8911878304E+03
          0                85           2            92   74     3      -0.1719931208E-04      92   74    3        -0.8907501096E+03      0.8907615432E+03
          0                86           2            92   74     3      -0.1719100389E-04      92   74    3        -0.8903218311E+03      0.8903332618E+03
          0                87           5            92   74     3      -0.3913397595E-01      92   74    3        -0.8898919839E+03      0.8899034117E+03
          0                88           4            92   74     3       0.3557580576E-02      92   74    3         0.9683492872E+02      0.9863809451E+02

    ------------------------------------------------
       NWT REQUIRED           88 OUTER ITERATIONS 
       AND A TOTAL OF        200 INNER ITERATIONS.
    ------------------------------------------------

 NO OUTPUT CONTROL FOR STRESS PERIOD   41   TIME STEP    8
 
 SOLVING FOR HEAD 
                                                   Max.-Head-Change                         Max.-Flux-Residual
  Residual-Control   Outer-Iter.   Inner-Iter.     Column Row Layer    Maximum-Head-Change  Column Row Layer    Maximum-Flux-Residual          L2-NORM 
          0                 1          10            56   98     3       0.6592988675E+01      56   98    3         0.1517544124E+06      0.4895469692E+06
          0                 2           9            24   47     2      -0.1272717865E+01      56   98    3        -0.1543492674E+05      0.5124758077E+05
          0                 3           6            24   47     2       0.1007889299E+00      37   25    2         0.7111097321E+03      0.1139524945E+04
          0                 4           4            24   47     1       0.1195165917E-02      66   43    3        -0.3359278548E+03      0.3359469480E+03

    ------------------------------------------------
       NWT REQUIRED            4 OUTER ITERATIONS 
       AND A TOTAL OF         29 INNER ITERATIONS.
    ------------------------------------------------

 NO OUTPUT CONTROL FOR STRESS PERIOD   41   TIME STEP    9
 
 SOLVING FOR HEAD 
                                                   Max.-Head-Change                         Max.-Flux-Residual
  Residual-Control   Outer-Iter.   Inner-Iter.     Column Row Layer    Maximum-Head-Change  Column Row Layer    Maximum-Flux-Residual          L2-NORM 
          0                 1          10            56   98     3       0.5961663234E+01      56   98    3         0.1372342478E+06      0.4751937190E+06
          0                 2           9            56   98     3      -0.5423424792E+00      56   98    3        -0.1393399410E+05      0.4850098568E+05
          0                 3           6            73   98     1       0.2821839810E-01      44   34    1        -0.1833951304E+04      0.1938818562E+04
          0                 4           5            44   34     1      -0.1290946501E-02      66   43    3        -0.6199206986E+03      0.6421924458E+03

    ------------------------------------------------
       NWT REQUIRED            4 OUTER ITERATIONS 
       AND A TOTAL OF         30 INNER ITERATIONS.
    ------------------------------------------------

 NO OUTPUT CONTROL FOR STRESS PERIOD   41   TIME STEP   10
 
 SOLVING FOR HEAD 
                                                   Max.-Head-Change                         Max.-Flux-Residual
  Residual-Control   Outer-Iter.   Inner-Iter.     Column Row Layer    Maximum-Head-Change  Column Row Layer    Maximum-Flux-Residual          L2-NORM 
          0                 1          10            56   98     3       0.5393095634E+01      56   98    3         0.1241177313E+06      0.4632822493E+06
          0                 2           9            76   55     1      -0.8195264595E+00      62   94    1        -0.1551323959E+05      0.5221839604E+05
          0                 3           6            76   55     1       0.6953517444E-01      62   94    1         0.1511385548E+04      0.2707859530E+04
          0                 4           5            15   14     1      -0.9803574285E-03      66   43    3        -0.8979378827E+03      0.9412485102E+03
          0                 5           4            15   14     1      -0.8817106760E-04      66   43    3        -0.8968691023E+03      0.9313730948E+03
          0                 6           3            66   43     3      -0.7308777923E-04      66   43    3        -0.8957000248E+03      0.9301542294E+03
          0                 7           4            66   43     3      -0.5621063866E-01      66   43    3        -0.8944390153E+03      0.9289176092E+03
          0                 8           3            66   43     3       0.5109930998E-02      57   27    3        -0.2506494535E+03      0.2668652773E+03

    ------------------------------------------------
       NWT REQUIRED            8 OUTER ITERATIONS 
       AND A TOTAL OF         44 INNER ITERATIONS.
    ------------------------------------------------

 NO OUTPUT CONTROL FOR STRESS PERIOD   41   TIME STEP   11
 
 SOLVING FOR HEAD 
                                                   Max.-Head-Change                         Max.-Flux-Residual
  Residual-Control   Outer-Iter.   Inner-Iter.     Column Row Layer    Maximum-Head-Change  Column Row Layer    Maximum-Flux-Residual          L2-NORM 
          0                 1          10            56   98     3       0.4882073128E+01      56   98    3         0.1123005347E+06      0.4537041775E+06
          0                 2           9            75   56     1      -0.6635977390E+00      69   21    1        -0.1808156398E+05      0.4935171902E+05
          0                 3           6            75   56     1       0.5747227102E-01      15   14    1         0.5275596761E+03      0.9081819357E+03
          0                 4           4            75   56     1       0.2564224672E-03      57   27    3        -0.4927789364E+03      0.4929741521E+03

    ------------------------------------------------
       NWT REQUIRED            4 OUTER ITERATIONS 
       AND A TOTAL OF         29 INNER ITERATIONS.
    ------------------------------------------------

 OUTPUT CONTROL FOR STRESS PERIOD   41   TIME STEP   12
    SAVE BUDGET
    SAVE HEAD FOR LAYERS:   1  2  3
 UBDSV1 SAVING "         STORAGE" ON UNIT  39 AT TIME STEP 12, STRESS PERIOD  41
 UBDSV2 SAVING "   CONSTANT HEAD" ON UNIT  39 AT TIME STEP 12, STRESS PERIOD  41
 UBDSV1 SAVING "FLOW RIGHT FACE " ON UNIT  39 AT TIME STEP 12, STRESS PERIOD  41
 UBDSV1 SAVING "FLOW FRONT FACE " ON UNIT  39 AT TIME STEP 12, STRESS PERIOD  41
 UBDSV1 SAVING "FLOW LOWER FACE " ON UNIT  39 AT TIME STEP 12, STRESS PERIOD  41
 UBDSV4 SAVING "           WELLS" ON UNIT  39 AT TIME STEP 12, STRESS PERIOD  41
 UBDSV3 SAVING "              ET" ON UNIT  39 AT TIME STEP 12, STRESS PERIOD  41
 UBDSV3 SAVING "        RECHARGE" ON UNIT  39 AT TIME STEP 12, STRESS PERIOD  41

 HEAD WILL BE SAVED ON UNIT   31 AT END OF TIME STEP   12, STRESS PERIOD   41
1
  VOLUMETRIC BUDGET FOR ENTIRE MODEL AT END OF TIME STEP   12, STRESS PERIOD  41
  ------------------------------------------------------------------------------

     CUMULATIVE VOLUMES      L**3       RATES FOR THIS TIME STEP      L**3/T
     ------------------                 ------------------------

           IN:                                      IN:
           ---                                      ---
             STORAGE =270220918784.0000               STORAGE =    19377984.0000
       CONSTANT HEAD = 23279689728.0000         CONSTANT HEAD =     2393878.2500
               WELLS = 18354743296.0000                 WELLS =     1225525.0000
                  ET =           0.0000                    ET =           0.0000
            RECHARGE =274213339136.0000              RECHARGE =    21131138.0000

            TOTAL IN =586068656128.0000              TOTAL IN =    44128528.0000

          OUT:                                     OUT:
          ----                                     ----
             STORAGE = 33870870528.0000               STORAGE =     2368244.5000
       CONSTANT HEAD = 52002336768.0000         CONSTANT HEAD =     2719611.0000
               WELLS =487249051648.0000                 WELLS =    38527380.0000
                  ET = 12946014208.0000                    ET =      513788.1562
            RECHARGE =           0.0000              RECHARGE =           0.0000

           TOTAL OUT =586068262912.0000             TOTAL OUT =    44129024.0000

            IN - OUT =      393216.0000              IN - OUT =        -496.0000

 PERCENT DISCREPANCY =           0.00     PERCENT DISCREPANCY =          -0.00






         TIME SUMMARY AT END OF TIME STEP   12 IN STRESS PERIOD   41
                    SECONDS     MINUTES      HOURS       DAYS        YEARS
                    -----------------------------------------------------------
   TIME STEP LENGTH 2.63520E+06  43920.      732.00      30.500     8.35044E-02
 STRESS PERIOD TIME 3.16224E+07 5.27040E+05  8784.0      366.00      1.0021    
         TOTAL TIME 1.29393E+09 2.15655E+07 3.59425E+05  14976.      41.002    
1
1
                            STRESS PERIOD NO.   42, LENGTH =   365.0000    
                            -----------------------------------------------

                              NUMBER OF TIME STEPS =    12

                               MULTIPLIER FOR DELT =     1.000

                            INITIAL TIME STEP SIZE =   30.41667    

   1572 WELLS

 REUSING SURF FROM LAST STRESS PERIOD

 REUSING EVTR FROM LAST STRESS PERIOD

 REUSING EXDP FROM LAST STRESS PERIOD



                           RECHARGE
 READING ON UNIT   16 WITH FORMAT: (15F5.0)            


     63 TIME-VARIANT SPECIFIED-HEAD CELLS
 
 SOLVING FOR HEAD 
                                                   Max.-Head-Change                         Max.-Flux-Residual
  Residual-Control   Outer-Iter.   Inner-Iter.     Column Row Layer    Maximum-Head-Change  Column Row Layer    Maximum-Flux-Residual          L2-NORM 
          0                 1          10            84   50     3      -0.1457472964E+03      58   96    3        -0.4188734758E+06      0.1029768967E+07
          0                 2           9            65    5     2      -0.1640064267E+02      65    5    2        -0.4347228180E+06      0.5785537494E+06
          0                 3           7            66    5     2       0.1571520864E+01      23   46    2        -0.6923748692E+04      0.9207855463E+04
          0                 4           6            66    5     2       0.2381603571E+00      57   27    3        -0.5037464502E+03      0.6657802195E+03
          0                 5           5            66    5     2       0.3580871641E-01      57   27    3        -0.5035375760E+03      0.5053307136E+03
          0                 6           4            66    5     2       0.5380691194E-02      57   27    3        -0.5033234335E+03      0.5033435905E+03

    ------------------------------------------------
       NWT REQUIRED            6 OUTER ITERATIONS 
       AND A TOTAL OF         41 INNER ITERATIONS.
    ------------------------------------------------

 NO OUTPUT CONTROL FOR STRESS PERIOD   42   TIME STEP    1
 
 SOLVING FOR HEAD 
                                                   Max.-Head-Change                         Max.-Flux-Residual
  Residual-Control   Outer-Iter.   Inner-Iter.     Column Row Layer    Maximum-Head-Change  Column Row Layer    Maximum-Flux-Residual          L2-NORM 
          0                 1          10            84   50     3      -0.2131604301E+02      58   96    3        -0.2693707574E+06      0.7315594019E+06
          0                 2           9            70   19     2       0.2701424856E+01      73   14    1        -0.4964223577E+05      0.9563460391E+05
          0                 3           6            70   19     2      -0.2447427682E+00      70   19    2        -0.3274709283E+04      0.3570636093E+04
          0                 4           4            26   67     1      -0.2068856177E-02      57   27    3        -0.7516840023E+03      0.7558220810E+03

    ------------------------------------------------
       NWT REQUIRED            4 OUTER ITERATIONS 
       AND A TOTAL OF         29 INNER ITERATIONS.
    ------------------------------------------------

 NO OUTPUT CONTROL FOR STRESS PERIOD   42   TIME STEP    2
 
 SOLVING FOR HEAD 
                                                   Max.-Head-Change                         Max.-Flux-Residual
  Residual-Control   Outer-Iter.   Inner-Iter.     Column Row Layer    Maximum-Head-Change  Column Row Layer    Maximum-Flux-Residual          L2-NORM 
          0                 1          10            56   98     3      -0.8678719993E+01      56   98    3        -0.2024968550E+06      0.6395788274E+06
          0                 2           9            70   17     2       0.1647817090E+01      56   98    3         0.1982176526E+05      0.7179062452E+05
          0                 3           6            70   17     2      -0.1497491972E+00      55   37    2        -0.3515099475E+04      0.4118365038E+04
          0                 4           4            74   95     1       0.5888751189E-03      55   37    2        -0.3508434385E+04      0.3646630080E+04
          0                 5           4            55   37     2      -0.1094348640E-03      55   37    2        -0.3501569311E+04      0.3639816541E+04
          0                 6           4            55   37     2      -0.1091940591E-03      55   37    2        -0.3494280361E+04      0.3632641433E+04
          0                 7           4            55   37     2      -0.1089394750E-03      55   37    2        -0.3486549794E+04      0.3625036853E+04
          0                 8           6            55   37     2      -0.5120270976E-01      55   37    2        -0.3478452567E+04      0.3617074668E+04
          0                 9           4            55   37     2       0.4653294154E-02      57   27    3        -0.9910661410E+03      0.1091760043E+04
          0                10           4            55   36     2      -0.8752362586E-04      57   27    3        -0.9903886798E+03      0.9904234864E+03
                                                   Max.-Head-Change                         Max.-Flux-Residual
  Residual-Control   Outer-Iter.   Inner-Iter.     Column Row Layer    Maximum-Head-Change  Column Row Layer    Maximum-Flux-Residual          L2-NORM 
          0                11           3            57   27     3      -0.3757551763E-04      57   27    3        -0.9896896665E+03      0.9896911531E+03
          0                12           3            57   27     3      -0.3754748269E-04      57   27    3        -0.9889702220E+03      0.9889714411E+03
          0                13           3            57   27     3      -0.3751868040E-04      57   27    3        -0.9882304713E+03      0.9882316873E+03
          0                14           3            57   27     3      -0.3748911327E-04      57   27    3        -0.9874705413E+03      0.9874717563E+03
          0                15           3            57   27     3      -0.3745878380E-04      57   27    3        -0.9866904729E+03      0.9866916870E+03
          0                16           3            57   27     3      -0.3742769300E-04      57   27    3        -0.9858903291E+03      0.9858915422E+03
          0                17           3            57   27     3      -0.3739584436E-04      57   27    3        -0.9850701769E+03      0.9850713890E+03
          0                18           3            57   27     3      -0.3736324089E-04      57   27    3        -0.9842300850E+03      0.9842312961E+03
          0                19           3            57   27     3      -0.3732988458E-04      57   27    3        -0.9833701237E+03      0.9833713337E+03
          0                20           3            57   27     3      -0.3729577893E-04      57   27    3        -0.9824903648E+03      0.9824915737E+03
                                                   Max.-Head-Change                         Max.-Flux-Residual
  Residual-Control   Outer-Iter.   Inner-Iter.     Column Row Layer    Maximum-Head-Change  Column Row Layer    Maximum-Flux-Residual          L2-NORM 
          0                21           3            57   27     3      -0.3726092646E-04      57   27    3        -0.9815908816E+03      0.9815920895E+03
          0                22           3            57   27     3      -0.3722533066E-04      57   27    3        -0.9806717493E+03      0.9806729560E+03
          0                23           5            57   27     3      -0.4312626143E-01      57   27    3        -0.9797415778E+03      0.9797427834E+03
          0                24           4            57   27     3       0.3920501175E-02      57   27    3         0.1077443680E+03      0.1093641292E+03

    ------------------------------------------------
       NWT REQUIRED           24 OUTER ITERATIONS 
       AND A TOTAL OF        100 INNER ITERATIONS.
    ------------------------------------------------

 NO OUTPUT CONTROL FOR STRESS PERIOD   42   TIME STEP    3
 
 SOLVING FOR HEAD 
                                                   Max.-Head-Change                         Max.-Flux-Residual
  Residual-Control   Outer-Iter.   Inner-Iter.     Column Row Layer    Maximum-Head-Change  Column Row Layer    Maximum-Flux-Residual          L2-NORM 
          0                 1          10            56   98     3      -0.7839643138E+01      56   98    3        -0.1816778688E+06      0.5907360063E+06
          0                 2           9            56   98     3       0.6938925382E+00      56   98    3         0.1782441890E+05      0.6367660144E+05
          0                 3           6            62   91     1       0.4690909778E-01      62   91    1         0.1456136415E+04      0.2079111993E+04
          0                 4           4            44   33     1       0.9069532729E-04      44   33    1         0.1019418341E+02      0.1270510358E+02

    ------------------------------------------------
       NWT REQUIRED            4 OUTER ITERATIONS 
       AND A TOTAL OF         29 INNER ITERATIONS.
    ------------------------------------------------

 NO OUTPUT CONTROL FOR STRESS PERIOD   42   TIME STEP    4
 
 SOLVING FOR HEAD 
                                                   Max.-Head-Change                         Max.-Flux-Residual
  Residual-Control   Outer-Iter.   Inner-Iter.     Column Row Layer    Maximum-Head-Change  Column Row Layer    Maximum-Flux-Residual          L2-NORM 
          0                 1          10            56   98     3      -0.7124700780E+01      56   98    3        -0.1640711860E+06      0.5606653421E+06
          0                 2           9            55  109     2      -0.8399143880E+00      71   19    2        -0.1781342196E+05      0.6073439010E+05
          0                 3           6            55  109     2       0.7247704357E-01      44   33    1        -0.6641384978E+03      0.1017822134E+04
          0                 4           4            55  109     2       0.3386915455E-03      44   33    1         0.2031212080E+02      0.2097744190E+02

    ------------------------------------------------
       NWT REQUIRED            4 OUTER ITERATIONS 
       AND A TOTAL OF         29 INNER ITERATIONS.
    ------------------------------------------------

 NO OUTPUT CONTROL FOR STRESS PERIOD   42   TIME STEP    5
 
 SOLVING FOR HEAD 
                                                   Max.-Head-Change                         Max.-Flux-Residual
  Residual-Control   Outer-Iter.   Inner-Iter.     Column Row Layer    Maximum-Head-Change  Column Row Layer    Maximum-Flux-Residual          L2-NORM 
          0                 1          10            56   98     3      -0.6511489914E+01      56   98    3        -0.1490757238E+06      0.5407957619E+06
          0                 2           9            59   95     1      -0.7195698869E+00      56   98    3         0.1467819304E+05      0.5596182225E+05
          0                 3           6            59   95     2       0.6085021902E-01      44   33    1        -0.7752090151E+03      0.1201953417E+04
          0                 4           4            32   41     3       0.1977965389E-02      32   41    3         0.7211092808E+02      0.8502280333E+02

    ------------------------------------------------
       NWT REQUIRED            4 OUTER ITERATIONS 
       AND A TOTAL OF         29 INNER ITERATIONS.
    ------------------------------------------------

 NO OUTPUT CONTROL FOR STRESS PERIOD   42   TIME STEP    6
 
 SOLVING FOR HEAD 
                                                   Max.-Head-Change                         Max.-Flux-Residual
  Residual-Control   Outer-Iter.   Inner-Iter.     Column Row Layer    Maximum-Head-Change  Column Row Layer    Maximum-Flux-Residual          L2-NORM 
          0                 1          10            56   98     3      -0.5982280941E+01      56   98    3        -0.1362189843E+06      0.5264054787E+06
          0                 2           9            64   38     2      -0.2311571475E+01      62   93    2         0.4352100571E+05      0.6850557561E+05
          0                 3           6            64   38     2       0.1188173685E+00      44   33    1        -0.8668422125E+03      0.8863936320E+03
          0                 4           4            64   38     2       0.4693173232E-02      44   33    1         0.4355219561E+02      0.4370981516E+02

    ------------------------------------------------
       NWT REQUIRED            4 OUTER ITERATIONS 
       AND A TOTAL OF         29 INNER ITERATIONS.
    ------------------------------------------------

 NO OUTPUT CONTROL FOR STRESS PERIOD   42   TIME STEP    7
 
 SOLVING FOR HEAD 
                                                   Max.-Head-Change                         Max.-Flux-Residual
  Residual-Control   Outer-Iter.   Inner-Iter.     Column Row Layer    Maximum-Head-Change  Column Row Layer    Maximum-Flux-Residual          L2-NORM 
          0                 1          10            56   98     3      -0.5522886727E+01      56   98    3        -0.1251269462E+06      0.5141861375E+06
          0                 2           9            51  103     3       0.2540956892E+02      51  103    3         0.3193517889E+05      0.6482701761E+05
          0                 3           6            51  103     3      -0.2310007774E+01      58  104    1        -0.4089283154E+04      0.5298365054E+04
          0                 4           4            58  104     1      -0.5708055633E-02      58  104    1        -0.3684754849E+03      0.3728829156E+03

    ------------------------------------------------
       NWT REQUIRED            4 OUTER ITERATIONS 
       AND A TOTAL OF         29 INNER ITERATIONS.
    ------------------------------------------------

 NO OUTPUT CONTROL FOR STRESS PERIOD   42   TIME STEP    8
 
 SOLVING FOR HEAD 
                                                   Max.-Head-Change                         Max.-Flux-Residual
  Residual-Control   Outer-Iter.   Inner-Iter.     Column Row Layer    Maximum-Head-Change  Column Row Layer    Maximum-Flux-Residual          L2-NORM 
          0                 1          10            51  103     3       0.1473730755E+02      56   98    3        -0.1155009906E+06      0.5039487202E+06
          0                 2           9            51  103     3      -0.1340390789E+01      62   93    1        -0.2334229406E+05      0.5836899559E+05
          0                 3           6            62   93     1       0.8620597724E-01      67   22    2         0.2811211123E+04      0.3907239809E+04
          0                 4           4            67   22     2       0.4815961915E-02      67   22    2         0.2529597319E+03      0.2610695950E+03

    ------------------------------------------------
       NWT REQUIRED            4 OUTER ITERATIONS 
       AND A TOTAL OF         29 INNER ITERATIONS.
    ------------------------------------------------

 NO OUTPUT CONTROL FOR STRESS PERIOD   42   TIME STEP    9
 
 SOLVING FOR HEAD 
                                                   Max.-Head-Change                         Max.-Flux-Residual
  Residual-Control   Outer-Iter.   Inner-Iter.     Column Row Layer    Maximum-Head-Change  Column Row Layer    Maximum-Flux-Residual          L2-NORM 
          0                 1          10            56   98     3      -0.4770067777E+01      56   98    3        -0.1071009551E+06      0.4970051603E+06
          0                 2           9            71   20     3       0.1241344301E+01      67   22    2         0.1065359801E+05      0.5229679293E+05
          0                 3           6            71   20     3      -0.1128515712E+00      62   92    1        -0.1154206287E+04      0.2261826943E+04
          0                 4           4            62   92     1      -0.1601749722E-02      62   92    1        -0.1039798385E+03      0.1267995760E+03

    ------------------------------------------------
       NWT REQUIRED            4 OUTER ITERATIONS 
       AND A TOTAL OF         29 INNER ITERATIONS.
    ------------------------------------------------

 NO OUTPUT CONTROL FOR STRESS PERIOD   42   TIME STEP   10
 
 SOLVING FOR HEAD 
                                                   Max.-Head-Change                         Max.-Flux-Residual
  Residual-Control   Outer-Iter.   Inner-Iter.     Column Row Layer    Maximum-Head-Change  Column Row Layer    Maximum-Flux-Residual          L2-NORM 
          0                 1          10            56   98     3      -0.4459852412E+01      56   98    3        -0.9973232083E+05      0.4905478933E+06
          0                 2           9            62   92     1      -0.1082085179E+01      62   92    1        -0.2030690612E+05      0.5612843809E+05
          0                 3           6            62   92     1       0.9603742561E-01      62   92    1         0.1987537065E+04      0.2274980091E+04
          0                 4           5            44   33     1       0.7015312091E-03      44   33    1         0.7875445777E+02      0.7884948429E+02

    ------------------------------------------------
       NWT REQUIRED            4 OUTER ITERATIONS 
       AND A TOTAL OF         30 INNER ITERATIONS.
    ------------------------------------------------

 NO OUTPUT CONTROL FOR STRESS PERIOD   42   TIME STEP   11

 INTERPOLATION FOR HEAD OBS# 1655, ID 2303-42-351  CHANGED BECAUSE AT LEAST ONE
 NEIGHBORING CELL REQUIRED FOR INTERPOLATION IS DRY OR INACTIVE (OBS2BAS7SE)

 INTERPOLATION FOR HEAD OBS# 1741, ID 2615-42-350  CHANGED BECAUSE AT LEAST ONE
 NEIGHBORING CELL REQUIRED FOR INTERPOLATION IS DRY OR INACTIVE (OBS2BAS7SE)

 INTERPOLATION FOR HEAD OBS# 1763, ID 2498-42-350  CHANGED BECAUSE AT LEAST ONE
 NEIGHBORING CELL REQUIRED FOR INTERPOLATION IS DRY OR INACTIVE (OBS2BAS7SE)

 INTERPOLATION FOR HEAD OBS# 2181, ID 2355-42-362  CHANGED BECAUSE AT LEAST ONE
 NEIGHBORING CELL REQUIRED FOR INTERPOLATION IS DRY OR INACTIVE (OBS2BAS7SE)

 INTERPOLATION FOR HEAD OBS# 2525, ID 2243-42-364  CHANGED BECAUSE AT LEAST ONE
 NEIGHBORING CELL REQUIRED FOR INTERPOLATION IS DRY OR INACTIVE (OBS2BAS7SE)

 INTERPOLATION FOR HEAD OBS# 3757, ID 1427-42-362  CHANGED BECAUSE AT LEAST ONE
 NEIGHBORING CELL REQUIRED FOR INTERPOLATION IS DRY OR INACTIVE (OBS2BAS7SE)

 INTERPOLATION FOR HEAD OBS# 7396, ID 218-42-337   CHANGED BECAUSE AT LEAST ONE
 NEIGHBORING CELL REQUIRED FOR INTERPOLATION IS DRY OR INACTIVE (OBS2BAS7SE)

 INTERPOLATION FOR HEAD OBS# 7532, ID 269-42-337   CHANGED BECAUSE AT LEAST ONE
 NEIGHBORING CELL REQUIRED FOR INTERPOLATION IS DRY OR INACTIVE (OBS2BAS7SE)
 
 SOLVING FOR HEAD 
                                                   Max.-Head-Change                         Max.-Flux-Residual
  Residual-Control   Outer-Iter.   Inner-Iter.     Column Row Layer    Maximum-Head-Change  Column Row Layer    Maximum-Flux-Residual          L2-NORM 
          0                 1          10            56   98     3      -0.4185056917E+01      56   98    3        -0.9323650792E+05      0.4859349137E+06
          0                 2           9            56   98     3       0.3733715806E+00      62   89    2         0.1372990403E+05      0.5150500580E+05
          0                 3           6            44   33     1      -0.1050340943E-01      44   33    1        -0.1074390747E+04      0.1088512016E+04
          0                 4           5            44   33     1       0.7413720894E-03      44   33    1         0.8318765634E+02      0.8461434490E+02

    ------------------------------------------------
       NWT REQUIRED            4 OUTER ITERATIONS 
       AND A TOTAL OF         30 INNER ITERATIONS.
    ------------------------------------------------

 OUTPUT CONTROL FOR STRESS PERIOD   42   TIME STEP   12
    SAVE BUDGET
 UBDSV1 SAVING "         STORAGE" ON UNIT  39 AT TIME STEP 12, STRESS PERIOD  42
 UBDSV2 SAVING "   CONSTANT HEAD" ON UNIT  39 AT TIME STEP 12, STRESS PERIOD  42
 UBDSV1 SAVING "FLOW RIGHT FACE " ON UNIT  39 AT TIME STEP 12, STRESS PERIOD  42
 UBDSV1 SAVING "FLOW FRONT FACE " ON UNIT  39 AT TIME STEP 12, STRESS PERIOD  42
 UBDSV1 SAVING "FLOW LOWER FACE " ON UNIT  39 AT TIME STEP 12, STRESS PERIOD  42
 UBDSV4 SAVING "           WELLS" ON UNIT  39 AT TIME STEP 12, STRESS PERIOD  42
 UBDSV3 SAVING "              ET" ON UNIT  39 AT TIME STEP 12, STRESS PERIOD  42
 UBDSV3 SAVING "        RECHARGE" ON UNIT  39 AT TIME STEP 12, STRESS PERIOD  42

 INTERPOLATION FOR HEAD OBS#  636, ID 3014-42-365  CHANGED BECAUSE AT LEAST ONE
 NEIGHBORING CELL REQUIRED FOR INTERPOLATION IS DRY OR INACTIVE (OBS2BAS7SE)

 INTERPOLATION FOR HEAD OBS#  649, ID 3055-43-6    CHANGED BECAUSE AT LEAST ONE
 NEIGHBORING CELL REQUIRED FOR INTERPOLATION IS DRY OR INACTIVE (OBS2BAS7SE)

 INTERPOLATION FOR HEAD OBS# 1334, ID 2852-43-5    CHANGED BECAUSE AT LEAST ONE
 NEIGHBORING CELL REQUIRED FOR INTERPOLATION IS DRY OR INACTIVE (OBS2BAS7SE)

 INTERPOLATION FOR HEAD OBS# 1338, ID 2869-43-8    CHANGED BECAUSE AT LEAST ONE
 NEIGHBORING CELL REQUIRED FOR INTERPOLATION IS DRY OR INACTIVE (OBS2BAS7SE)

 INTERPOLATION FOR HEAD OBS# 1401, ID 2840-43-5    CHANGED BECAUSE AT LEAST ONE
 NEIGHBORING CELL REQUIRED FOR INTERPOLATION IS DRY OR INACTIVE (OBS2BAS7SE)

 INTERPOLATION FOR HEAD OBS# 3700, ID 1479-43-5    CHANGED BECAUSE AT LEAST ONE
 NEIGHBORING CELL REQUIRED FOR INTERPOLATION IS DRY OR INACTIVE (OBS2BAS7SE)

 INTERPOLATION FOR HEAD OBS# 3714, ID 1471-43-5    CHANGED BECAUSE AT LEAST ONE
 NEIGHBORING CELL REQUIRED FOR INTERPOLATION IS DRY OR INACTIVE (OBS2BAS7SE)

 INTERPOLATION FOR HEAD OBS# 3774, ID 1405-43-5    CHANGED BECAUSE AT LEAST ONE
 NEIGHBORING CELL REQUIRED FOR INTERPOLATION IS DRY OR INACTIVE (OBS2BAS7SE)
1
  VOLUMETRIC BUDGET FOR ENTIRE MODEL AT END OF TIME STEP   12, STRESS PERIOD  42
  ------------------------------------------------------------------------------

     CUMULATIVE VOLUMES      L**3       RATES FOR THIS TIME STEP      L**3/T
     ------------------                 ------------------------

           IN:                                      IN:
           ---                                      ---
             STORAGE =276957462528.0000               STORAGE =    17743864.0000
       CONSTANT HEAD = 24173232128.0000         CONSTANT HEAD =     2486087.7500
               WELLS = 18802100224.0000                 WELLS =     1225642.0000
                  ET =           0.0000                    ET =           0.0000
            RECHARGE =283282866176.0000              RECHARGE =    24848356.0000

            TOTAL IN =603215626240.0000              TOTAL IN =    46303952.0000

          OUT:                                     OUT:
          ----                                     ----
             STORAGE = 35569786880.0000               STORAGE =     4092502.2500
       CONSTANT HEAD = 52937977856.0000         CONSTANT HEAD =     2487120.2500
               WELLS =501585772544.0000                 WELLS =    39263620.0000
                  ET = 13121853440.0000                    ET =      460709.7500
            RECHARGE =           0.0000              RECHARGE =           0.0000

           TOTAL OUT =603215364096.0000             TOTAL OUT =    46303952.0000

            IN - OUT =      262144.0000              IN - OUT =           0.0000

 PERCENT DISCREPANCY =           0.00     PERCENT DISCREPANCY =           0.00






         TIME SUMMARY AT END OF TIME STEP   12 IN STRESS PERIOD   42
                    SECONDS     MINUTES      HOURS       DAYS        YEARS
                    -----------------------------------------------------------
   TIME STEP LENGTH 2.62800E+06  43800.      730.00      30.417     8.32763E-02
 STRESS PERIOD TIME 3.15360E+07 5.25600E+05  8760.0      365.00     0.99932    
         TOTAL TIME 1.32547E+09 2.20911E+07 3.68185E+05  15341.      42.001    
1
1
                            STRESS PERIOD NO.   43, LENGTH =   365.0000    
                            -----------------------------------------------

                              NUMBER OF TIME STEPS =    12

                               MULTIPLIER FOR DELT =     1.000

                            INITIAL TIME STEP SIZE =   30.41667    

   1504 WELLS

 REUSING SURF FROM LAST STRESS PERIOD

 REUSING EVTR FROM LAST STRESS PERIOD

 REUSING EXDP FROM LAST STRESS PERIOD



                           RECHARGE
 READING ON UNIT   16 WITH FORMAT: (15F5.0)            


     63 TIME-VARIANT SPECIFIED-HEAD CELLS
 
 SOLVING FOR HEAD 
                                                   Max.-Head-Change                         Max.-Flux-Residual
  Residual-Control   Outer-Iter.   Inner-Iter.     Column Row Layer    Maximum-Head-Change  Column Row Layer    Maximum-Flux-Residual          L2-NORM 
          0                 1          10            65    2     2      -0.9121822494E+02      55  115    1         0.2331674579E+06      0.1018606705E+07
          0                 2           9            84   50     2       0.8717315062E+01      84   50    2         0.3129586464E+06      0.3300809997E+06
          0                 3           5            66   18     1       0.2326942430E+00      66   18    1         0.1893829144E+04      0.2399028425E+04
          0                 4           3            65    2     2       0.9986987868E-02      66   18    1         0.7000084009E+01      0.1056467112E+02

    ------------------------------------------------
       NWT REQUIRED            4 OUTER ITERATIONS 
       AND A TOTAL OF         27 INNER ITERATIONS.
    ------------------------------------------------

 NO OUTPUT CONTROL FOR STRESS PERIOD   43   TIME STEP    1

 INTERPOLATION FOR HEAD OBS# 7379, ID 451-43-53    CHANGED BECAUSE AT LEAST ONE
 NEIGHBORING CELL REQUIRED FOR INTERPOLATION IS DRY OR INACTIVE (OBS2BAS7SE)
 
 SOLVING FOR HEAD 
                                                   Max.-Head-Change                         Max.-Flux-Residual
  Residual-Control   Outer-Iter.   Inner-Iter.     Column Row Layer    Maximum-Head-Change  Column Row Layer    Maximum-Flux-Residual          L2-NORM 
          0                 1          10            82   53     3       0.5455564594E+01      55  108    3         0.1373292235E+06      0.6928783528E+06
          0                 2           9            62   95     2       0.1207702440E+01      62   95    2         0.7314744444E+05      0.1006950638E+06
          0                 3           6            62   96     3      -0.1041233191E+00      62   96    3        -0.4502430307E+03      0.7366434258E+03
          0                 4           3            63   96     1      -0.1525117963E-03      63   96    1        -0.8669636652E+01      0.1101822241E+02

    ------------------------------------------------
       NWT REQUIRED            4 OUTER ITERATIONS 
       AND A TOTAL OF         28 INNER ITERATIONS.
    ------------------------------------------------

 NO OUTPUT CONTROL FOR STRESS PERIOD   43   TIME STEP    2
 
 SOLVING FOR HEAD 
                                                   Max.-Head-Change                         Max.-Flux-Residual
  Residual-Control   Outer-Iter.   Inner-Iter.     Column Row Layer    Maximum-Head-Change  Column Row Layer    Maximum-Flux-Residual          L2-NORM 
          0                 1          10            56   99     3      -0.3438453820E+01      55  108    3         0.8975455329E+05      0.5782322032E+06
          0                 2           9            65    6     2      -0.3038702783E+02      65    6    2        -0.1713862464E+05      0.6297862213E+05
          0                 3           5            65    6     2       0.2421479806E+01      65    3    2        -0.2521770350E+05      0.2535241366E+05
          0                 4           3            65    6     2       0.9196826172E-01      65    3    2        -0.2281279884E+04      0.2282815883E+04
          0                 5           2            65    3     2      -0.7174318935E-02      65    3    2        -0.2051869718E+03      0.2053228336E+03

    ------------------------------------------------
       NWT REQUIRED            5 OUTER ITERATIONS 
       AND A TOTAL OF         29 INNER ITERATIONS.
    ------------------------------------------------

 NO OUTPUT CONTROL FOR STRESS PERIOD   43   TIME STEP    3
 
 SOLVING FOR HEAD 
                                                   Max.-Head-Change                         Max.-Flux-Residual
  Residual-Control   Outer-Iter.   Inner-Iter.     Column Row Layer    Maximum-Head-Change  Column Row Layer    Maximum-Flux-Residual          L2-NORM 
          0                 1          10            65    6     2      -0.5635685453E+01      70   19    1        -0.7609917780E+05      0.5225356715E+06
          0                 2           9            65    3     2      -0.3170104722E+02      65    3    2        -0.1274292949E+05      0.5385436864E+05
          0                 3           5            65    3     2       0.2425277490E+01      65    3    2         0.1202632960E+04      0.1465504432E+04
          0                 4           3            65    3     2       0.1242642369E+00      65    3    2         0.6164549522E+02      0.8274254173E+02
          0                 5           2            65    3     2       0.6332999523E-02      65    4    2        -0.4369952172E+01      0.5524301521E+01

    ------------------------------------------------
       NWT REQUIRED            5 OUTER ITERATIONS 
       AND A TOTAL OF         29 INNER ITERATIONS.
    ------------------------------------------------

 NO OUTPUT CONTROL FOR STRESS PERIOD   43   TIME STEP    4
 
 SOLVING FOR HEAD 
                                                   Max.-Head-Change                         Max.-Flux-Residual
  Residual-Control   Outer-Iter.   Inner-Iter.     Column Row Layer    Maximum-Head-Change  Column Row Layer    Maximum-Flux-Residual          L2-NORM 
          0                 1          10            56   99     3      -0.2837959025E+01      70   19    1        -0.6822129406E+05      0.4898424915E+06
          0                 2           9            65    5     2      -0.1821485291E+02      73   14    2         0.2634075130E+05      0.5652046997E+05
          0                 3           5            65    5     2       0.8799467006E+00      65    5    2         0.5093461630E+03      0.7702321973E+03
          0                 4           3            65    5     2       0.3862474767E-01      65    5    2         0.2234938657E+02      0.2307928480E+02
          0                 5           2            65    5     2       0.1691627299E-02      65    5    2         0.9788367590E+00      0.1107833159E+01

    ------------------------------------------------
       NWT REQUIRED            5 OUTER ITERATIONS 
       AND A TOTAL OF         29 INNER ITERATIONS.
    ------------------------------------------------

 NO OUTPUT CONTROL FOR STRESS PERIOD   43   TIME STEP    5
 
 SOLVING FOR HEAD 
                                                   Max.-Head-Change                         Max.-Flux-Residual
  Residual-Control   Outer-Iter.   Inner-Iter.     Column Row Layer    Maximum-Head-Change  Column Row Layer    Maximum-Flux-Residual          L2-NORM 
          0                 1          10            65    5     2      -0.1650609750E+02      70   19    1        -0.6138900862E+05      0.4673283400E+06
          0                 2           9            62   95     1      -0.1155245096E+01      62   95    1        -0.3036071661E+05      0.5580063881E+05
          0                 3           5            62   95     1       0.1030597361E+00      62   95    1         0.2987994255E+04      0.3076572619E+04
          0                 4           2            65    5     2       0.1376645712E-02      62   95    1         0.4216071442E+01      0.4322642385E+01

    ------------------------------------------------
       NWT REQUIRED            4 OUTER ITERATIONS 
       AND A TOTAL OF         26 INNER ITERATIONS.
    ------------------------------------------------

 NO OUTPUT CONTROL FOR STRESS PERIOD   43   TIME STEP    6
 
 SOLVING FOR HEAD 
                                                   Max.-Head-Change                         Max.-Flux-Residual
  Residual-Control   Outer-Iter.   Inner-Iter.     Column Row Layer    Maximum-Head-Change  Column Row Layer    Maximum-Flux-Residual          L2-NORM 
          0                 1          10            56   99     3      -0.2386758765E+01      62   95    2        -0.6005756012E+05      0.4526660248E+06
          0                 2           9            53  117     1      -0.4791202774E+00      53  117    1        -0.2644971124E+05      0.5331377560E+05
          0                 3           5            66  104     2       0.3018697695E-02      59  110    1         0.2472547057E+02      0.5040907801E+02

    ------------------------------------------------
       NWT REQUIRED            3 OUTER ITERATIONS 
       AND A TOTAL OF         24 INNER ITERATIONS.
    ------------------------------------------------

 NO OUTPUT CONTROL FOR STRESS PERIOD   43   TIME STEP    7
 
 SOLVING FOR HEAD 
                                                   Max.-Head-Change                         Max.-Flux-Residual
  Residual-Control   Outer-Iter.   Inner-Iter.     Column Row Layer    Maximum-Head-Change  Column Row Layer    Maximum-Flux-Residual          L2-NORM 
          0                 1          10            56   99     3      -0.2205098138E+01      62   95    2        -0.6470317568E+05      0.4407498661E+06
          0                 2           9            69   21     1      -0.2043296019E+01      62   96    3         0.1140482161E+05      0.4686986856E+05
          0                 3           5            69   21     1       0.1745002473E+00      69   21    1         0.9768120184E+03      0.9896786382E+03
          0                 4           2            69   21     1       0.9612891537E-03      69   21    1         0.5256611165E+01      0.5283759326E+01

    ------------------------------------------------
       NWT REQUIRED            4 OUTER ITERATIONS 
       AND A TOTAL OF         26 INNER ITERATIONS.
    ------------------------------------------------

 NO OUTPUT CONTROL FOR STRESS PERIOD   43   TIME STEP    8
 
 SOLVING FOR HEAD 
                                                   Max.-Head-Change                         Max.-Flux-Residual
  Residual-Control   Outer-Iter.   Inner-Iter.     Column Row Layer    Maximum-Head-Change  Column Row Layer    Maximum-Flux-Residual          L2-NORM 
          0                 1          10            69   21     1      -0.3423823320E+01      62   95    2        -0.6064498697E+05      0.4305663322E+06
          0                 2           9            69   21     1       0.2910959085E+00      62   90    2         0.1524941459E+05      0.4700171980E+05
          0                 3           5            63   91     1       0.2302628278E-01      63   91    1         0.6202881122E+03      0.7093978643E+03
          0                 4           2            85   85     2      -0.9595682254E-04      63   91    1         0.6913325489E+00      0.9303854268E+00

    ------------------------------------------------
       NWT REQUIRED            4 OUTER ITERATIONS 
       AND A TOTAL OF         26 INNER ITERATIONS.
    ------------------------------------------------

 NO OUTPUT CONTROL FOR STRESS PERIOD   43   TIME STEP    9
 
 SOLVING FOR HEAD 
                                                   Max.-Head-Change                         Max.-Flux-Residual
  Residual-Control   Outer-Iter.   Inner-Iter.     Column Row Layer    Maximum-Head-Change  Column Row Layer    Maximum-Flux-Residual          L2-NORM 
          0                 1          10            56   98     3      -0.2121525218E+01      62   95    2        -0.5757016543E+05      0.4224924434E+06
          0                 2           9            73   14     1      -0.1220090118E+01      73   14    1        -0.8906828895E+04      0.4353515936E+05
          0                 3           5            73   14     1       0.1064510175E+00      73   14    1         0.8568827620E+03      0.1098161490E+04
          0                 4           2            73   14     1       0.3879443372E-03      73   14    1         0.2947408136E+01      0.3030602155E+01

    ------------------------------------------------
       NWT REQUIRED            4 OUTER ITERATIONS 
       AND A TOTAL OF         26 INNER ITERATIONS.
    ------------------------------------------------

 NO OUTPUT CONTROL FOR STRESS PERIOD   43   TIME STEP   10
 
 SOLVING FOR HEAD 
                                                   Max.-Head-Change                         Max.-Flux-Residual
  Residual-Control   Outer-Iter.   Inner-Iter.     Column Row Layer    Maximum-Head-Change  Column Row Layer    Maximum-Flux-Residual          L2-NORM 
          0                 1          10            73   14     1      -0.2639479984E+01      62   95    2        -0.5524707939E+05      0.4158277063E+06
          0                 2           9            81   58     1      -0.2184382006E+01      62   60    2         0.6286169966E+04      0.4288976732E+05
          0                 3           5            81   58     1       0.1725205215E+00      62   60    1        -0.2128987986E+04      0.2192790376E+04
          0                 4           3            62   60     1      -0.4290358291E-02      62   60    1        -0.1917416953E+03      0.1918421827E+03

    ------------------------------------------------
       NWT REQUIRED            4 OUTER ITERATIONS 
       AND A TOTAL OF         27 INNER ITERATIONS.
    ------------------------------------------------

 NO OUTPUT CONTROL FOR STRESS PERIOD   43   TIME STEP   11
 
 SOLVING FOR HEAD 
                                                   Max.-Head-Change                         Max.-Flux-Residual
  Residual-Control   Outer-Iter.   Inner-Iter.     Column Row Layer    Maximum-Head-Change  Column Row Layer    Maximum-Flux-Residual          L2-NORM 
          0                 1          10            56   98     3      -0.2058617166E+01      62   95    2        -0.5351039984E+05      0.4108321720E+06
          0                 2           9            62   60     1      -0.2084305893E+00      44   33    2         0.7097970814E+04      0.4234810771E+05
          0                 3           5            62   60     1       0.1872488864E-01      62   60    1         0.4177103139E+03      0.5112424669E+03
          0                 4           2            85   85     2      -0.9736576257E-04      62   60    1         0.3909357488E+00      0.7061750368E+00

    ------------------------------------------------
       NWT REQUIRED            4 OUTER ITERATIONS 
       AND A TOTAL OF         26 INNER ITERATIONS.
    ------------------------------------------------

 OUTPUT CONTROL FOR STRESS PERIOD   43   TIME STEP   12
    SAVE BUDGET
 UBDSV1 SAVING "         STORAGE" ON UNIT  39 AT TIME STEP 12, STRESS PERIOD  43
 UBDSV2 SAVING "   CONSTANT HEAD" ON UNIT  39 AT TIME STEP 12, STRESS PERIOD  43
 UBDSV1 SAVING "FLOW RIGHT FACE " ON UNIT  39 AT TIME STEP 12, STRESS PERIOD  43
 UBDSV1 SAVING "FLOW FRONT FACE " ON UNIT  39 AT TIME STEP 12, STRESS PERIOD  43
 UBDSV1 SAVING "FLOW LOWER FACE " ON UNIT  39 AT TIME STEP 12, STRESS PERIOD  43
 UBDSV4 SAVING "           WELLS" ON UNIT  39 AT TIME STEP 12, STRESS PERIOD  43
 UBDSV3 SAVING "              ET" ON UNIT  39 AT TIME STEP 12, STRESS PERIOD  43
 UBDSV3 SAVING "        RECHARGE" ON UNIT  39 AT TIME STEP 12, STRESS PERIOD  43
1
  VOLUMETRIC BUDGET FOR ENTIRE MODEL AT END OF TIME STEP   12, STRESS PERIOD  43
  ------------------------------------------------------------------------------

     CUMULATIVE VOLUMES      L**3       RATES FOR THIS TIME STEP      L**3/T
     ------------------                 ------------------------

           IN:                                      IN:
           ---                                      ---
             STORAGE =283205894144.0000               STORAGE =    16133467.0000
       CONSTANT HEAD = 25046468608.0000         CONSTANT HEAD =     2352475.0000
               WELLS = 19249457152.0000                 WELLS =     1225642.0000
                  ET =           0.0000                    ET =           0.0000
            RECHARGE =291134210048.0000              RECHARGE =    21511000.0000

            TOTAL IN =618636050432.0000              TOTAL IN =    41222584.0000

          OUT:                                     OUT:
          ----                                     ----
             STORAGE = 37101006848.0000               STORAGE =     3231275.0000
       CONSTANT HEAD = 53846872064.0000         CONSTANT HEAD =     2407955.5000
               WELLS =514381021184.0000                 WELLS =    35055292.0000
                  ET = 13307065344.0000                    ET =      528062.1875
            RECHARGE =           0.0000              RECHARGE =           0.0000

           TOTAL OUT =618635919360.0000             TOTAL OUT =    41222588.0000

            IN - OUT =      131072.0000              IN - OUT =          -4.0000

 PERCENT DISCREPANCY =           0.00     PERCENT DISCREPANCY =          -0.00






         TIME SUMMARY AT END OF TIME STEP   12 IN STRESS PERIOD   43
                    SECONDS     MINUTES      HOURS       DAYS        YEARS
                    -----------------------------------------------------------
   TIME STEP LENGTH 2.62800E+06  43800.      730.00      30.417     8.32763E-02
 STRESS PERIOD TIME 3.15360E+07 5.25600E+05  8760.0      365.00     0.99932    
         TOTAL TIME 1.35700E+09 2.26167E+07 3.76945E+05  15706.      43.001    
1
1
                            STRESS PERIOD NO.   44, LENGTH =   365.0000    
                            -----------------------------------------------

                              NUMBER OF TIME STEPS =    12

                               MULTIPLIER FOR DELT =     1.000

                            INITIAL TIME STEP SIZE =   30.41667    

   1522 WELLS

 REUSING SURF FROM LAST STRESS PERIOD

 REUSING EVTR FROM LAST STRESS PERIOD

 REUSING EXDP FROM LAST STRESS PERIOD



                           RECHARGE
 READING ON UNIT   16 WITH FORMAT: (15F5.0)            


     63 TIME-VARIANT SPECIFIED-HEAD CELLS
 
 SOLVING FOR HEAD 
                                                   Max.-Head-Change                         Max.-Flux-Residual
  Residual-Control   Outer-Iter.   Inner-Iter.     Column Row Layer    Maximum-Head-Change  Column Row Layer    Maximum-Flux-Residual          L2-NORM 
          0                 1          11            65    2     2       0.1539003770E+03      87   51    1         0.5305367799E+06      0.3146266408E+07
          0                 2          10            65    5     2      -0.5111158360E+02      65    5    2        -0.1393937445E+07      0.2795156342E+07
          0                 3           7            66    2     2       0.1398912158E+02      65    5    2        -0.2842723129E+05      0.4777785276E+05
          0                 4           5            66    2     2       0.2150845802E+01      65    4    2         0.1699054338E+04      0.2835992365E+04
          0                 5           4            66    2     2       0.3162599841E+00      65    4    2         0.1526795029E+03      0.3307495210E+03
          0                 6           3            66    2     2       0.4646576691E-01      66    2    2         0.2047679871E+02      0.4219210838E+02
          0                 7           2            66    2     2       0.6822450231E-02      66    2    2         0.3006226111E+01      0.5713963953E+01

    ------------------------------------------------
       NWT REQUIRED            7 OUTER ITERATIONS 
       AND A TOTAL OF         42 INNER ITERATIONS.
    ------------------------------------------------

 NO OUTPUT CONTROL FOR STRESS PERIOD   44   TIME STEP    1
 
 SOLVING FOR HEAD 
                                                   Max.-Head-Change                         Max.-Flux-Residual
  Residual-Control   Outer-Iter.   Inner-Iter.     Column Row Layer    Maximum-Head-Change  Column Row Layer    Maximum-Flux-Residual          L2-NORM 
          0                 1          11            92   52     1       0.1131440468E+02      84   52    1         0.4463499576E+06      0.2505795010E+07
          0                 2           9            83   51     1      -0.2276784760E+01      83   51    1        -0.1351599847E+06      0.3049191243E+06
          0                 3           6            70   46     1      -0.6915296109E-01      59   54    2        -0.7950181852E+03      0.1871932715E+04
          0                 4           4            85   51     2       0.2301113061E-02      79   48    1         0.3896846047E+02      0.6006880948E+02

    ------------------------------------------------
       NWT REQUIRED            4 OUTER ITERATIONS 
       AND A TOTAL OF         30 INNER ITERATIONS.
    ------------------------------------------------

 NO OUTPUT CONTROL FOR STRESS PERIOD   44   TIME STEP    2
 
 SOLVING FOR HEAD 
                                                   Max.-Head-Change                         Max.-Flux-Residual
  Residual-Control   Outer-Iter.   Inner-Iter.     Column Row Layer    Maximum-Head-Change  Column Row Layer    Maximum-Flux-Residual          L2-NORM 
          0                 1          11            92   52     1       0.1105338197E+02      84   52    1         0.4085892406E+06      0.2156554583E+07
          0                 2           9            84   52     1      -0.1536417876E+01      84   52    1        -0.8570819411E+05      0.2641404567E+06
          0                 3           6            62   43     1      -0.2362925081E-01      59   53    2         0.1282986810E+04      0.1755423323E+04
          0                 4           3            59   53     2       0.1119273707E-02      59   53    2         0.1154556989E+03      0.1177137421E+03

    ------------------------------------------------
       NWT REQUIRED            4 OUTER ITERATIONS 
       AND A TOTAL OF         29 INNER ITERATIONS.
    ------------------------------------------------

 NO OUTPUT CONTROL FOR STRESS PERIOD   44   TIME STEP    3
 
 SOLVING FOR HEAD 
                                                   Max.-Head-Change                         Max.-Flux-Residual
  Residual-Control   Outer-Iter.   Inner-Iter.     Column Row Layer    Maximum-Head-Change  Column Row Layer    Maximum-Flux-Residual          L2-NORM 
          0                 1          11            92   52     1       0.1023982000E+02      92   52    1         0.3671672580E+06      0.1908951689E+07
          0                 2           9            73   14     2       0.5068681968E+01      73   14    2         0.5198317653E+05      0.2105735310E+06
          0                 3           6            73   14     2      -0.4308273496E+00      73   14    2        -0.4797550246E+04      0.5051406048E+04
          0                 4           3            71   46     1      -0.5811168456E-03      61  108    1         0.6227838308E+01      0.9017136077E+01

    ------------------------------------------------
       NWT REQUIRED            4 OUTER ITERATIONS 
       AND A TOTAL OF         29 INNER ITERATIONS.
    ------------------------------------------------

 NO OUTPUT CONTROL FOR STRESS PERIOD   44   TIME STEP    4
 
 SOLVING FOR HEAD 
                                                   Max.-Head-Change                         Max.-Flux-Residual
  Residual-Control   Outer-Iter.   Inner-Iter.     Column Row Layer    Maximum-Head-Change  Column Row Layer    Maximum-Flux-Residual          L2-NORM 
          0                 1          11            92   52     1       0.9482962732E+01      92   52    1         0.3403860092E+06      0.1726772525E+07
          0                 2           9            71   19     3       0.1385693633E+01      62   93    1        -0.7489837987E+05      0.2004947832E+06
          0                 3           6            71   19     3      -0.1259772803E+00      65   45    1        -0.2635133632E+04      0.4057351729E+04
          0                 4           5            34   30     2       0.2285775700E-02      34   30    2         0.1383128383E+03      0.1434915736E+03

    ------------------------------------------------
       NWT REQUIRED            4 OUTER ITERATIONS 
       AND A TOTAL OF         31 INNER ITERATIONS.
    ------------------------------------------------

 NO OUTPUT CONTROL FOR STRESS PERIOD   44   TIME STEP    5
 
 SOLVING FOR HEAD 
                                                   Max.-Head-Change                         Max.-Flux-Residual
  Residual-Control   Outer-Iter.   Inner-Iter.     Column Row Layer    Maximum-Head-Change  Column Row Layer    Maximum-Flux-Residual          L2-NORM 
          0                 1          11            92   52     1       0.8792592194E+01      92   52    1         0.3154128435E+06      0.1591817927E+07
          0                 2           9            65   45     1      -0.1743946600E+01      65   45    1        -0.9991745368E+05      0.2085212902E+06
          0                 3           6            69   21     2       0.1849646817E+00      69   21    2         0.8172804421E+04      0.1041525788E+05
          0                 4           4            69   21     2       0.1664012679E-01      69   21    2         0.7352077188E+03      0.9308529832E+03
          0                 5           3            69   21     2       0.1496085610E-02      69   21    2         0.6609241222E+02      0.8369318705E+02

    ------------------------------------------------
       NWT REQUIRED            5 OUTER ITERATIONS 
       AND A TOTAL OF         33 INNER ITERATIONS.
    ------------------------------------------------

 NO OUTPUT CONTROL FOR STRESS PERIOD   44   TIME STEP    6
 
 SOLVING FOR HEAD 
                                                   Max.-Head-Change                         Max.-Flux-Residual
  Residual-Control   Outer-Iter.   Inner-Iter.     Column Row Layer    Maximum-Head-Change  Column Row Layer    Maximum-Flux-Residual          L2-NORM 
          0                 1          10            66  101     1      -0.8680329978E+01      92   52    1         0.2924487350E+06      0.1484538477E+07
          0                 2           9            69   21     2       0.4534698503E+01      69   21    2         0.4334918015E+05      0.1629023549E+06
          0                 3           7            69   21     2      -0.4122308310E+00      39   29    2         0.6985891644E+04      0.9807469374E+04
          0                 4           6            39   29     2       0.5400714341E-02      32   41    3         0.1668182960E+04      0.1813298940E+04
          0                 5           4            39   29     2       0.4856747998E-03      32   41    3         0.1666436598E+04      0.1667662408E+04
          0                 6           4            32   41     2       0.1046838896E-03      32   41    3         0.1664862836E+04      0.1664873935E+04
          0                 7           4            32   41     2       0.1046045729E-03      32   41    3         0.1663453156E+04      0.1663454445E+04
          0                 8           4            32   41     2       0.1045353159E-03      32   41    3         0.1662206251E+04      0.1662207460E+04
          0                 9           7            32   41     3       0.1392228422E+00      32   41    3         0.1661080024E+04      0.1661081255E+04
          0                10           5            32   41     2      -0.2885763841E-01      32   41    2        -0.6995150703E+03      0.7591219582E+03
          0                11           4            32   40     3      -0.1896707295E-03      32   42    3         0.3313205712E+01      0.4219018341E+01

    ------------------------------------------------
       NWT REQUIRED           11 OUTER ITERATIONS 
       AND A TOTAL OF         64 INNER ITERATIONS.
    ------------------------------------------------

 NO OUTPUT CONTROL FOR STRESS PERIOD   44   TIME STEP    7
 
 SOLVING FOR HEAD 
                                                   Max.-Head-Change                         Max.-Flux-Residual
  Residual-Control   Outer-Iter.   Inner-Iter.     Column Row Layer    Maximum-Head-Change  Column Row Layer    Maximum-Flux-Residual          L2-NORM 
          0                 1          10            92   52     1       0.7572122086E+01      92   52    1         0.2713501934E+06      0.1402385403E+07
          0                 2           9            65   45     2       0.1914446076E+01      65   45    2         0.5311442133E+05      0.1676157431E+06
          0                 3           6            65   45     2      -0.1739968120E+00      65   45    2        -0.5286855136E+04      0.8867824807E+04
          0                 4           4            66   22     2       0.7355223185E-02      66   22    2         0.4183169053E+03      0.4274411002E+03

    ------------------------------------------------
       NWT REQUIRED            4 OUTER ITERATIONS 
       AND A TOTAL OF         29 INNER ITERATIONS.
    ------------------------------------------------

 NO OUTPUT CONTROL FOR STRESS PERIOD   44   TIME STEP    8
 
 SOLVING FOR HEAD 
                                                   Max.-Head-Change                         Max.-Flux-Residual
  Residual-Control   Outer-Iter.   Inner-Iter.     Column Row Layer    Maximum-Head-Change  Column Row Layer    Maximum-Flux-Residual          L2-NORM 
          0                 1          10            92   52     1       0.7052161994E+01      92   52    1         0.2521891811E+06      0.1336282462E+07
          0                 2           9            62   91     2       0.1095809079E+01      62   91    2         0.3518594508E+05      0.1562919191E+06
          0                 3           6            62   91     2      -0.9990358388E-01      62   91    2        -0.3508330282E+04      0.4478853048E+04
          0                 4           3            62  105     1       0.2301883171E-03      62  105    1         0.1018126556E+02      0.1488141501E+02

    ------------------------------------------------
       NWT REQUIRED            4 OUTER ITERATIONS 
       AND A TOTAL OF         28 INNER ITERATIONS.
    ------------------------------------------------

 NO OUTPUT CONTROL FOR STRESS PERIOD   44   TIME STEP    9
 
 SOLVING FOR HEAD 
                                                   Max.-Head-Change                         Max.-Flux-Residual
  Residual-Control   Outer-Iter.   Inner-Iter.     Column Row Layer    Maximum-Head-Change  Column Row Layer    Maximum-Flux-Residual          L2-NORM 
          0                 1          10            92   52     1       0.6590851437E+01      92   52    1         0.2349566548E+06      0.1280900036E+07
          0                 2           9            92   52     1      -0.6045933275E+00      92   52    1        -0.2379811232E+05      0.1336846392E+06
          0                 3           7            52  117     1      -0.3337417428E-01      36   29    2        -0.1406583339E+04      0.2399831408E+04
          0                 4           3            66    2     2      -0.1163261917E-03      52  117    1        -0.9532517344E+00      0.1641718304E+01

    ------------------------------------------------
       NWT REQUIRED            4 OUTER ITERATIONS 
       AND A TOTAL OF         29 INNER ITERATIONS.
    ------------------------------------------------

 NO OUTPUT CONTROL FOR STRESS PERIOD   44   TIME STEP   10
 
 SOLVING FOR HEAD 
                                                   Max.-Head-Change                         Max.-Flux-Residual
  Residual-Control   Outer-Iter.   Inner-Iter.     Column Row Layer    Maximum-Head-Change  Column Row Layer    Maximum-Flux-Residual          L2-NORM 
          0                 1          10            92   52     1       0.6184223213E+01      92   52    1         0.2196429970E+06      0.1234673657E+07
          0                 2           9            92   52     1      -0.5660133273E+00      44   34    1        -0.2251719521E+05      0.1314601045E+06
          0                 3           7            63   92     2       0.1179752088E+00      63   92    2         0.7680529254E+04      0.9576967605E+04
          0                 4           6            63   92     2       0.1060021438E-01      63   92    2         0.6908388717E+03      0.8549357533E+03
          0                 5           4            63   92     2       0.9529157031E-03      63   92    2         0.6210317143E+02      0.7685182224E+02

    ------------------------------------------------
       NWT REQUIRED            5 OUTER ITERATIONS 
       AND A TOTAL OF         36 INNER ITERATIONS.
    ------------------------------------------------

 NO OUTPUT CONTROL FOR STRESS PERIOD   44   TIME STEP   11
 
 SOLVING FOR HEAD 
                                                   Max.-Head-Change                         Max.-Flux-Residual
  Residual-Control   Outer-Iter.   Inner-Iter.     Column Row Layer    Maximum-Head-Change  Column Row Layer    Maximum-Flux-Residual          L2-NORM 
          0                 1          10            92   52     1       0.5828417577E+01      92   52    1         0.2061465775E+06      0.1195173168E+07
          0                 2           9            81   52     2       0.1363422799E+01      60   62    1        -0.3648475579E+05      0.1346191383E+06
          0                 3           6            81   52     2      -0.1239388253E+00      45   37    2         0.2298667783E+04      0.3777361613E+04
          0                 4           4            45   37     2       0.2446735817E-02      45   37    2         0.2068430848E+03      0.2068673184E+03

    ------------------------------------------------
       NWT REQUIRED            4 OUTER ITERATIONS 
       AND A TOTAL OF         29 INNER ITERATIONS.
    ------------------------------------------------

 OUTPUT CONTROL FOR STRESS PERIOD   44   TIME STEP   12
    SAVE BUDGET
 UBDSV1 SAVING "         STORAGE" ON UNIT  39 AT TIME STEP 12, STRESS PERIOD  44
 UBDSV2 SAVING "   CONSTANT HEAD" ON UNIT  39 AT TIME STEP 12, STRESS PERIOD  44
 UBDSV1 SAVING "FLOW RIGHT FACE " ON UNIT  39 AT TIME STEP 12, STRESS PERIOD  44
 UBDSV1 SAVING "FLOW FRONT FACE " ON UNIT  39 AT TIME STEP 12, STRESS PERIOD  44
 UBDSV1 SAVING "FLOW LOWER FACE " ON UNIT  39 AT TIME STEP 12, STRESS PERIOD  44
 UBDSV4 SAVING "           WELLS" ON UNIT  39 AT TIME STEP 12, STRESS PERIOD  44
 UBDSV3 SAVING "              ET" ON UNIT  39 AT TIME STEP 12, STRESS PERIOD  44
 UBDSV3 SAVING "        RECHARGE" ON UNIT  39 AT TIME STEP 12, STRESS PERIOD  44
1
  VOLUMETRIC BUDGET FOR ENTIRE MODEL AT END OF TIME STEP   12, STRESS PERIOD  44
  ------------------------------------------------------------------------------

     CUMULATIVE VOLUMES      L**3       RATES FOR THIS TIME STEP      L**3/T
     ------------------                 ------------------------

           IN:                                      IN:
           ---                                      ---
             STORAGE =286116610048.0000               STORAGE =     6181866.5000
       CONSTANT HEAD = 25815789568.0000         CONSTANT HEAD =     2000203.1250
               WELLS = 19696814080.0000                 WELLS =     1225642.0000
                  ET =           0.0000                    ET =           0.0000
            RECHARGE =314783006720.0000              RECHARGE =    64791012.0000

            TOTAL IN =646412238848.0000              TOTAL IN =    74198720.0000

          OUT:                                     OUT:
          ----                                     ----
             STORAGE = 51152924672.0000               STORAGE =    35291672.0000
       CONSTANT HEAD = 54806990848.0000         CONSTANT HEAD =     2734950.2500
               WELLS =526078017536.0000                 WELLS =    32046392.0000
                  ET = 14374234112.0000                    ET =     4125694.7500
            RECHARGE =           0.0000              RECHARGE =           0.0000

           TOTAL OUT =646412173312.0000             TOTAL OUT =    74198712.0000

            IN - OUT =       65536.0000              IN - OUT =           8.0000

 PERCENT DISCREPANCY =           0.00     PERCENT DISCREPANCY =           0.00






         TIME SUMMARY AT END OF TIME STEP   12 IN STRESS PERIOD   44
                    SECONDS     MINUTES      HOURS       DAYS        YEARS
                    -----------------------------------------------------------
   TIME STEP LENGTH 2.62800E+06  43800.      730.00      30.417     8.32763E-02
 STRESS PERIOD TIME 3.15360E+07 5.25600E+05  8760.0      365.00     0.99932    
         TOTAL TIME 1.38854E+09 2.31423E+07 3.85705E+05  16071.      44.000    
1
1
                            STRESS PERIOD NO.   45, LENGTH =   366.0000    
                            -----------------------------------------------

                              NUMBER OF TIME STEPS =    12

                               MULTIPLIER FOR DELT =     1.000

                            INITIAL TIME STEP SIZE =   30.50000    

   1713 WELLS

 REUSING SURF FROM LAST STRESS PERIOD

 REUSING EVTR FROM LAST STRESS PERIOD

 REUSING EXDP FROM LAST STRESS PERIOD



                           RECHARGE
 READING ON UNIT   16 WITH FORMAT: (15F5.0)            


     63 TIME-VARIANT SPECIFIED-HEAD CELLS
 
 SOLVING FOR HEAD 
                                                   Max.-Head-Change                         Max.-Flux-Residual
  Residual-Control   Outer-Iter.   Inner-Iter.     Column Row Layer    Maximum-Head-Change  Column Row Layer    Maximum-Flux-Residual          L2-NORM 
          0                 1          11            62   96     3       0.6828242575E+02      43   33    2        -0.3720084281E+06      0.2397021445E+07
          0                 2          10            61   96     3      -0.6103071865E+01      19   38    2        -0.9917092784E+05      0.2623197444E+06
          0                 3           7            19   37     2       0.2050218390E+00      17   15    1         0.3087805096E+04      0.6518918009E+04
          0                 4           6            19   37     2      -0.1637704942E-01      32   29    2         0.2357561915E+03      0.2881226732E+03
          0                 5           4            19   39     2       0.1527062981E-02      32   29    2         0.2119420242E+02      0.2507627818E+02

    ------------------------------------------------
       NWT REQUIRED            5 OUTER ITERATIONS 
       AND A TOTAL OF         38 INNER ITERATIONS.
    ------------------------------------------------

 NO OUTPUT CONTROL FOR STRESS PERIOD   45   TIME STEP    1
 
 SOLVING FOR HEAD 
                                                   Max.-Head-Change                         Max.-Flux-Residual
  Residual-Control   Outer-Iter.   Inner-Iter.     Column Row Layer    Maximum-Head-Change  Column Row Layer    Maximum-Flux-Residual          L2-NORM 
          0                 1          11            23   43     2      -0.1689381520E+02      67   47    1        -0.2598950511E+06      0.1441634928E+07
          0                 2           9            55   37     1      -0.2752828067E+01      75   48    1         0.4251598947E+05      0.1501005677E+06
          0                 3           6            55   37     1       0.2339554132E+00      32   29    2        -0.1595291248E+04      0.2230839919E+04
          0                 4           4            55   37     1       0.1508744328E-02      60  106    1        -0.8904622257E+01      0.1576512022E+02

    ------------------------------------------------
       NWT REQUIRED            4 OUTER ITERATIONS 
       AND A TOTAL OF         30 INNER ITERATIONS.
    ------------------------------------------------

 NO OUTPUT CONTROL FOR STRESS PERIOD   45   TIME STEP    2
 
 SOLVING FOR HEAD 
                                                   Max.-Head-Change                         Max.-Flux-Residual
  Residual-Control   Outer-Iter.   Inner-Iter.     Column Row Layer    Maximum-Head-Change  Column Row Layer    Maximum-Flux-Residual          L2-NORM 
          0                 1          10            56   99     3      -0.7674827334E+01      75   48    1        -0.2196432979E+06      0.1125115207E+07
          0                 2           9            62   43     2       0.7508695113E+00      75   48    1         0.2177917692E+05      0.1143205923E+06
          0                 3           6            62   43     2      -0.6825109969E-01      32   26    1         0.1411145220E+04      0.1632995716E+04
          0                 4           3            80   84     1       0.2057390333E-03      59  105    1         0.1623843378E+02      0.1813029176E+02

    ------------------------------------------------
       NWT REQUIRED            4 OUTER ITERATIONS 
       AND A TOTAL OF         28 INNER ITERATIONS.
    ------------------------------------------------

 NO OUTPUT CONTROL FOR STRESS PERIOD   45   TIME STEP    3
 
 SOLVING FOR HEAD 
                                                   Max.-Head-Change                         Max.-Flux-Residual
  Residual-Control   Outer-Iter.   Inner-Iter.     Column Row Layer    Maximum-Head-Change  Column Row Layer    Maximum-Flux-Residual          L2-NORM 
          0                 1          10            56   99     3      -0.6324803811E+01      76   48    1        -0.1899766126E+06      0.9369253039E+06
          0                 2           9            65    2     2      -0.3940885807E+02      76   48    1         0.1881452966E+05      0.9729152957E+05
          0                 3           7            65    2     2       0.1253627372E+01      33   26    1        -0.3180930496E+04      0.4777216899E+04
          0                 4           5            65    2     2       0.7273742303E-01      33   26    1        -0.2868627059E+03      0.4037805618E+03
          0                 5           4            65    2     2       0.4216062408E-02      33   26    1        -0.2579352450E+02      0.3634833445E+02

    ------------------------------------------------
       NWT REQUIRED            5 OUTER ITERATIONS 
       AND A TOTAL OF         35 INNER ITERATIONS.
    ------------------------------------------------

 NO OUTPUT CONTROL FOR STRESS PERIOD   45   TIME STEP    4
 
 SOLVING FOR HEAD 
                                                   Max.-Head-Change                         Max.-Flux-Residual
  Residual-Control   Outer-Iter.   Inner-Iter.     Column Row Layer    Maximum-Head-Change  Column Row Layer    Maximum-Flux-Residual          L2-NORM 
          0                 1          10            65    2     2      -0.6232209359E+02      76   48    1        -0.1727260763E+06      0.8113401802E+06
          0                 2           9            65    2     2       0.2995280598E+01      62   94    1        -0.4473006046E+05      0.9705544419E+05
          0                 3           6            65    2     2       0.1630744640E+00      43   33    1         0.2159438558E+04      0.2535147178E+04
          0                 4           3            65    2     2       0.8920299679E-02      58   99    3        -0.8383436486E+01      0.1303082605E+02

    ------------------------------------------------
       NWT REQUIRED            4 OUTER ITERATIONS 
       AND A TOTAL OF         28 INNER ITERATIONS.
    ------------------------------------------------

 NO OUTPUT CONTROL FOR STRESS PERIOD   45   TIME STEP    5
 
 SOLVING FOR HEAD 
                                                   Max.-Head-Change                         Max.-Flux-Residual
  Residual-Control   Outer-Iter.   Inner-Iter.     Column Row Layer    Maximum-Head-Change  Column Row Layer    Maximum-Flux-Residual          L2-NORM 
          0                 1          10            56   99     3      -0.4337588916E+01      76   48    1        -0.1571113753E+06      0.7216099336E+06
          0                 2           9            66    1     2      -0.3148959682E+02      76   48    1         0.3934095635E+05      0.8946928116E+05
          0                 3           5            66    1     2       0.8594532393E+00      61   96    2         0.2359370631E+04      0.2397932395E+04
          0                 4           3            66    1     2       0.5430487101E-01      61   96    2         0.2126699914E+03      0.2139543813E+03
          0                 5           2            66    1     2       0.3426880416E-02      61   96    2         0.1911893274E+02      0.1918446053E+02

    ------------------------------------------------
       NWT REQUIRED            5 OUTER ITERATIONS 
       AND A TOTAL OF         29 INNER ITERATIONS.
    ------------------------------------------------

 NO OUTPUT CONTROL FOR STRESS PERIOD   45   TIME STEP    6
 
 SOLVING FOR HEAD 
                                                   Max.-Head-Change                         Max.-Flux-Residual
  Residual-Control   Outer-Iter.   Inner-Iter.     Column Row Layer    Maximum-Head-Change  Column Row Layer    Maximum-Flux-Residual          L2-NORM 
          0                 1          10            66    1     2      -0.3561146978E+02      76   48    1        -0.1271779144E+06      0.6515367786E+06
          0                 2           9            66    1     2       0.9858477565E+00      62   94    2         0.1680972743E+05      0.6884064029E+05
          0                 3           5            66    1     2       0.6182711059E-01      62   94    2        -0.1653562319E+04      0.2286193557E+04
          0                 4           3            66    1     2       0.3872197353E-02      43   34    1        -0.7131392717E+01      0.7991201336E+01

    ------------------------------------------------
       NWT REQUIRED            4 OUTER ITERATIONS 
       AND A TOTAL OF         27 INNER ITERATIONS.
    ------------------------------------------------

 NO OUTPUT CONTROL FOR STRESS PERIOD   45   TIME STEP    7
 
 SOLVING FOR HEAD 
                                                   Max.-Head-Change                         Max.-Flux-Residual
  Residual-Control   Outer-Iter.   Inner-Iter.     Column Row Layer    Maximum-Head-Change  Column Row Layer    Maximum-Flux-Residual          L2-NORM 
          0                 1          10            56   99     3      -0.3007942492E+01      76   48    1        -0.1002302713E+06      0.5997681909E+06
          0                 2           9            78   54     1      -0.2879441386E+00      61   60    1        -0.1255029788E+05      0.6200216480E+05
          0                 3           6            78   54     1       0.2196201130E-01      43   34    1        -0.4009345983E+03      0.4106629046E+03
          0                 4           4            78   54     1       0.3218905038E-03      43   34    1        -0.8998185039E+01      0.9213591469E+01

    ------------------------------------------------
       NWT REQUIRED            4 OUTER ITERATIONS 
       AND A TOTAL OF         29 INNER ITERATIONS.
    ------------------------------------------------

 NO OUTPUT CONTROL FOR STRESS PERIOD   45   TIME STEP    8
 
 SOLVING FOR HEAD 
                                                   Max.-Head-Change                         Max.-Flux-Residual
  Residual-Control   Outer-Iter.   Inner-Iter.     Column Row Layer    Maximum-Head-Change  Column Row Layer    Maximum-Flux-Residual          L2-NORM 
          0                 1          10            78   54     1      -0.4120783275E+01      69   47    1        -0.8696617174E+05      0.5598352664E+06
          0                 2           9            57   84     2      -0.1355617871E+01      69   47    1         0.8603750910E+04      0.5674144962E+05
          0                 3           6            57   84     2       0.1158196753E+00      43   34    1        -0.6943934190E+03      0.9138378850E+03
          0                 4           4            77   57     1       0.6626729451E-03      43   34    1         0.8281966507E+01      0.9036518103E+01

    ------------------------------------------------
       NWT REQUIRED            4 OUTER ITERATIONS 
       AND A TOTAL OF         29 INNER ITERATIONS.
    ------------------------------------------------

 NO OUTPUT CONTROL FOR STRESS PERIOD   45   TIME STEP    9
 
 SOLVING FOR HEAD 
                                                   Max.-Head-Change                         Max.-Flux-Residual
  Residual-Control   Outer-Iter.   Inner-Iter.     Column Row Layer    Maximum-Head-Change  Column Row Layer    Maximum-Flux-Residual          L2-NORM 
          0                 1          10            55  100     3      -0.2375810581E+01      69   47    1        -0.7880430891E+05      0.5286191645E+06
          0                 2           9            74   55     1      -0.7529326018E+00      60   63    1        -0.2157538390E+05      0.5836475356E+05
          0                 3           6            74   55     1       0.6587562413E-01      43   34    1        -0.9055360406E+03      0.9992936108E+03
          0                 4           4            79   56     1       0.9002530931E-03      43   34    1         0.3438369721E+02      0.3453276108E+02

    ------------------------------------------------
       NWT REQUIRED            4 OUTER ITERATIONS 
       AND A TOTAL OF         29 INNER ITERATIONS.
    ------------------------------------------------

 NO OUTPUT CONTROL FOR STRESS PERIOD   45   TIME STEP   10
 
 SOLVING FOR HEAD 
                                                   Max.-Head-Change                         Max.-Flux-Residual
  Residual-Control   Outer-Iter.   Inner-Iter.     Column Row Layer    Maximum-Head-Change  Column Row Layer    Maximum-Flux-Residual          L2-NORM 
          0                 1          10            79   56     1      -0.3546910096E+01      91   51    1         0.7272472615E+05      0.5033715152E+06
          0                 2           9            65    6     2      -0.1194306886E+02      91   51    1        -0.7307366676E+04      0.5097992630E+05
          0                 3           6            65    6     2       0.6031036280E+00      43   34    1        -0.1040788794E+04      0.1298928041E+04
          0                 4           4            65    6     2       0.2445106824E-01      43   34    1         0.6034922338E+02      0.6257657488E+02
          0                 5           3            65    6     2       0.9891816977E-03      43   34    1         0.2144003212E+01      0.2653626055E+01

    ------------------------------------------------
       NWT REQUIRED            5 OUTER ITERATIONS 
       AND A TOTAL OF         32 INNER ITERATIONS.
    ------------------------------------------------

 NO OUTPUT CONTROL FOR STRESS PERIOD   45   TIME STEP   11
 
 SOLVING FOR HEAD 
                                                   Max.-Head-Change                         Max.-Flux-Residual
  Residual-Control   Outer-Iter.   Inner-Iter.     Column Row Layer    Maximum-Head-Change  Column Row Layer    Maximum-Flux-Residual          L2-NORM 
          0                 1          10            65    6     2      -0.2001733026E+02      91   51    1         0.6973007241E+05      0.4834561088E+06
          0                 2           9            65    6     2       0.2408038298E+01      91   51    1        -0.7003464618E+04      0.4887089296E+05
          0                 3           6            65    6     2       0.8815748627E-01      43   34    1        -0.1120237160E+04      0.1169838438E+04
          0                 4           4            65    6     2       0.3262023573E-02      43   34    1         0.8238902199E+02      0.8243396246E+02

    ------------------------------------------------
       NWT REQUIRED            4 OUTER ITERATIONS 
       AND A TOTAL OF         29 INNER ITERATIONS.
    ------------------------------------------------

 OUTPUT CONTROL FOR STRESS PERIOD   45   TIME STEP   12
    SAVE BUDGET
 UBDSV1 SAVING "         STORAGE" ON UNIT  39 AT TIME STEP 12, STRESS PERIOD  45
 UBDSV2 SAVING "   CONSTANT HEAD" ON UNIT  39 AT TIME STEP 12, STRESS PERIOD  45
 UBDSV1 SAVING "FLOW RIGHT FACE " ON UNIT  39 AT TIME STEP 12, STRESS PERIOD  45
 UBDSV1 SAVING "FLOW FRONT FACE " ON UNIT  39 AT TIME STEP 12, STRESS PERIOD  45
 UBDSV1 SAVING "FLOW LOWER FACE " ON UNIT  39 AT TIME STEP 12, STRESS PERIOD  45
 UBDSV4 SAVING "           WELLS" ON UNIT  39 AT TIME STEP 12, STRESS PERIOD  45
 UBDSV3 SAVING "              ET" ON UNIT  39 AT TIME STEP 12, STRESS PERIOD  45
 UBDSV3 SAVING "        RECHARGE" ON UNIT  39 AT TIME STEP 12, STRESS PERIOD  45
1
  VOLUMETRIC BUDGET FOR ENTIRE MODEL AT END OF TIME STEP   12, STRESS PERIOD  45
  ------------------------------------------------------------------------------

     CUMULATIVE VOLUMES      L**3       RATES FOR THIS TIME STEP      L**3/T
     ------------------                 ------------------------

           IN:                                      IN:
           ---                                      ---
             STORAGE =291634020352.0000               STORAGE =    11741773.0000
       CONSTANT HEAD = 26526316544.0000         CONSTANT HEAD =     1910768.7500
               WELLS = 20145399808.0000                 WELLS =     1225642.0000
                  ET =           0.0000                    ET =           0.0000
            RECHARGE =326053363712.0000              RECHARGE =    30792824.0000

            TOTAL IN =664359141376.0000              TOTAL IN =    45671008.0000

          OUT:                                     OUT:
          ----                                     ----
             STORAGE = 55288000512.0000               STORAGE =     8223430.5000
       CONSTANT HEAD = 55782092800.0000         CONSTANT HEAD =     2642523.2500
               WELLS =537596002304.0000                 WELLS =    31459896.0000
                  ET = 15692666880.0000                    ET =     3345160.5000
            RECHARGE =           0.0000              RECHARGE =           0.0000

           TOTAL OUT =664358748160.0000             TOTAL OUT =    45671012.0000

            IN - OUT =      393216.0000              IN - OUT =          -4.0000

 PERCENT DISCREPANCY =           0.00     PERCENT DISCREPANCY =          -0.00






         TIME SUMMARY AT END OF TIME STEP   12 IN STRESS PERIOD   45
                    SECONDS     MINUTES      HOURS       DAYS        YEARS
                    -----------------------------------------------------------
   TIME STEP LENGTH 2.63520E+06  43920.      732.00      30.500     8.35044E-02
 STRESS PERIOD TIME 3.16224E+07 5.27040E+05  8784.0      366.00      1.0021    
         TOTAL TIME 1.42016E+09 2.36694E+07 3.94489E+05  16437.      45.002    
1
1
                            STRESS PERIOD NO.   46, LENGTH =   365.0000    
                            -----------------------------------------------

                              NUMBER OF TIME STEPS =    12

                               MULTIPLIER FOR DELT =     1.000

                            INITIAL TIME STEP SIZE =   30.41667    

   1879 WELLS

 REUSING SURF FROM LAST STRESS PERIOD

 REUSING EVTR FROM LAST STRESS PERIOD

 REUSING EXDP FROM LAST STRESS PERIOD



                           RECHARGE
 READING ON UNIT   16 WITH FORMAT: (15F5.0)            


     63 TIME-VARIANT SPECIFIED-HEAD CELLS
 
 SOLVING FOR HEAD 
                                                   Max.-Head-Change                         Max.-Flux-Residual
  Residual-Control   Outer-Iter.   Inner-Iter.     Column Row Layer    Maximum-Head-Change  Column Row Layer    Maximum-Flux-Residual          L2-NORM 
          0                 1          11            84   52     3      -0.7661326421E+02      53  118    2        -0.2597229272E+06      0.1207752196E+07
          0                 2           9            84   52     3       0.6974256380E+01      23   43    2        -0.1338353682E+06      0.1807958843E+06
          0                 3           8            22   43     2       0.7072196263E+00      23   43    2        -0.4978142850E+04      0.5736010088E+04
          0                 4           6            22   43     2       0.7682960334E-01      23   42    2         0.1149657756E+03      0.2231402928E+03
          0                 5           5            22   43     2       0.7758783211E-02      22   43    2         0.1151106641E+02      0.2114841924E+02

    ------------------------------------------------
       NWT REQUIRED            5 OUTER ITERATIONS 
       AND A TOTAL OF         39 INNER ITERATIONS.
    ------------------------------------------------

 NO OUTPUT CONTROL FOR STRESS PERIOD   46   TIME STEP    1
 
 SOLVING FOR HEAD 
                                                   Max.-Head-Change                         Max.-Flux-Residual
  Residual-Control   Outer-Iter.   Inner-Iter.     Column Row Layer    Maximum-Head-Change  Column Row Layer    Maximum-Flux-Residual          L2-NORM 
          0                 1          11            84   52     3      -0.1317868096E+02      77   48    1        -0.1889404375E+06      0.8328036751E+06
          0                 2           9            65    3     2      -0.1622054558E+02      53  118    1         0.2083679565E+05      0.8635374270E+05
          0                 3           7            65    3     2       0.8698670972E+00      55  100    3        -0.4048482776E+04      0.4518633742E+04
          0                 4           3            65    3     2       0.4267114049E-01      55  100    3         0.8544936400E+03      0.8653767034E+03
          0                 5           2            55  100     3      -0.3028736160E-02      55  100    3        -0.9838379950E+02      0.9913387803E+02

    ------------------------------------------------
       NWT REQUIRED            5 OUTER ITERATIONS 
       AND A TOTAL OF         32 INNER ITERATIONS.
    ------------------------------------------------

 NO OUTPUT CONTROL FOR STRESS PERIOD   46   TIME STEP    2
 
 SOLVING FOR HEAD 
                                                   Max.-Head-Change                         Max.-Flux-Residual
  Residual-Control   Outer-Iter.   Inner-Iter.     Column Row Layer    Maximum-Head-Change  Column Row Layer    Maximum-Flux-Residual          L2-NORM 
          0                 1          10            65    3     2      -0.1135642033E+02      77   48    1        -0.1676713762E+06      0.7085152956E+06
          0                 2           9            65    5     2      -0.3149723841E+02      77   48    1         0.1652645273E+05      0.7387635836E+05
          0                 3           5            65    5     2       0.3616791671E+01      55  100    3        -0.7423676413E+04      0.7925560512E+04
          0                 4           3            65    5     2       0.1533589104E+00      55  100    3         0.2518965204E+04      0.2523094251E+04
          0                 5           2            55  100     3      -0.1809778848E-01      55  100    3        -0.5869065970E+03      0.5869922139E+03
          0                 6           2            55  100     3       0.1993763849E-02      55  100    3         0.7082118171E+02      0.7082611675E+02

    ------------------------------------------------
       NWT REQUIRED            6 OUTER ITERATIONS 
       AND A TOTAL OF         31 INNER ITERATIONS.
    ------------------------------------------------

 NO OUTPUT CONTROL FOR STRESS PERIOD   46   TIME STEP    3
 
 SOLVING FOR HEAD 
                                                   Max.-Head-Change                         Max.-Flux-Residual
  Residual-Control   Outer-Iter.   Inner-Iter.     Column Row Layer    Maximum-Head-Change  Column Row Layer    Maximum-Flux-Residual          L2-NORM 
          0                 1          10            55   99     3      -0.5470947550E+01      77   48    1        -0.1495020862E+06      0.6337985253E+06
          0                 2           9            77   48     1       0.6554450671E+00      77   48    1         0.3553293056E+05      0.8142500923E+05
          0                 3           5            55  100     3      -0.2659511233E+00      55  100    3        -0.7158429751E+04      0.7293863970E+04
          0                 4           3            55  100     3       0.9774198484E-01      55  100    3         0.2887684543E+04      0.2890431436E+04
          0                 5           2            55  100     3      -0.2550740047E-01      55  100    3        -0.8262319196E+03      0.8263135170E+03
          0                 6           2            55  100     3       0.3965479661E-02      55  100    3         0.1406656690E+03      0.1406701015E+03

    ------------------------------------------------
       NWT REQUIRED            6 OUTER ITERATIONS 
       AND A TOTAL OF         31 INNER ITERATIONS.
    ------------------------------------------------

 NO OUTPUT CONTROL FOR STRESS PERIOD   46   TIME STEP    4
 
 SOLVING FOR HEAD 
                                                   Max.-Head-Change                         Max.-Flux-Residual
  Residual-Control   Outer-Iter.   Inner-Iter.     Column Row Layer    Maximum-Head-Change  Column Row Layer    Maximum-Flux-Residual          L2-NORM 
          0                 1          10            55   99     3      -0.5211955527E+01      85   52    1        -0.1207038636E+06      0.5771256820E+06
          0                 2           9            55   99     3       0.4638753659E+00      77   48    1         0.1191803757E+05      0.5882366861E+05
          0                 3           5            55  100     3      -0.2120439937E+00      55  100    3        -0.5701888499E+04      0.5714167462E+04
          0                 4           3            55  100     3       0.8375147982E-01      55  100    3         0.2471932974E+04      0.2471945795E+04
          0                 5           2            55  100     3      -0.2365808741E-01      55  100    3        -0.7656048778E+03      0.7656087903E+03
          0                 6           2            55  100     3       0.4171173040E-02      55  100    3         0.1478141962E+03      0.1478149348E+03

    ------------------------------------------------
       NWT REQUIRED            6 OUTER ITERATIONS 
       AND A TOTAL OF         31 INNER ITERATIONS.
    ------------------------------------------------

 NO OUTPUT CONTROL FOR STRESS PERIOD   46   TIME STEP    5
 
 SOLVING FOR HEAD 
                                                   Max.-Head-Change                         Max.-Flux-Residual
  Residual-Control   Outer-Iter.   Inner-Iter.     Column Row Layer    Maximum-Head-Change  Column Row Layer    Maximum-Flux-Residual          L2-NORM 
          0                 1          10            55   99     3      -0.4980102567E+01      55   99    3        -0.1088547762E+06      0.5358254210E+06
          0                 2           9            56   83     2      -0.4137445843E+01      56   83    2        -0.1409908161E+05      0.5652013829E+05
          0                 3           5            56   83     2       0.3495260269E+00      55  100    3        -0.4303291294E+04      0.4509656690E+04
          0                 4           3            55  100     3       0.6526259180E-01      55  100    3         0.1924639058E+04      0.1924665763E+04
          0                 5           2            55  100     3      -0.1905599045E-01      55  100    3        -0.6161693891E+03      0.6161723623E+03
          0                 6           2            55  100     3       0.3539216235E-02      55  100    3         0.1253142448E+03      0.1253148102E+03

    ------------------------------------------------
       NWT REQUIRED            6 OUTER ITERATIONS 
       AND A TOTAL OF         31 INNER ITERATIONS.
    ------------------------------------------------

 NO OUTPUT CONTROL FOR STRESS PERIOD   46   TIME STEP    6
 
 SOLVING FOR HEAD 
                                                   Max.-Head-Change                         Max.-Flux-Residual
  Residual-Control   Outer-Iter.   Inner-Iter.     Column Row Layer    Maximum-Head-Change  Column Row Layer    Maximum-Flux-Residual          L2-NORM 
          0                 1          10            23   44     2      -0.5764970501E+01      55   99    3        -0.1040101273E+06      0.5058294034E+06
          0                 2           9            23   44     2       0.5176602093E+00      55   99    3         0.1024466753E+05      0.5088630422E+05
          0                 3           5            55  100     3      -0.1206731159E+00      55  100    3        -0.3239737409E+04      0.3245259198E+04
          0                 4           3            55  100     3       0.4982366058E-01      55  100    3         0.1468250879E+04      0.1468258254E+04
          0                 5           2            55  100     3      -0.1474757910E-01      55  100    3        -0.4765060861E+03      0.4765083269E+03
          0                 6           2            55  100     3       0.2798618162E-02      55  100    3         0.9901779604E+02      0.9901821719E+02

    ------------------------------------------------
       NWT REQUIRED            6 OUTER ITERATIONS 
       AND A TOTAL OF         31 INNER ITERATIONS.
    ------------------------------------------------

 NO OUTPUT CONTROL FOR STRESS PERIOD   46   TIME STEP    7
 
 SOLVING FOR HEAD 
                                                   Max.-Head-Change                         Max.-Flux-Residual
  Residual-Control   Outer-Iter.   Inner-Iter.     Column Row Layer    Maximum-Head-Change  Column Row Layer    Maximum-Flux-Residual          L2-NORM 
          0                 1          10            55   99     3      -0.4585483490E+01      55   99    3        -0.9966430305E+05      0.4830387880E+06
          0                 2           9            55   99     3       0.4075451670E+00      55   99    3         0.9822392077E+04      0.4843939586E+05
          0                 3           5            55  100     3      -0.9240009266E-01      55  100    3        -0.2478971746E+04      0.2481326121E+04
          0                 4           3            55  100     3       0.3833760955E-01      55  100    3         0.1129005104E+04      0.1129010310E+04
          0                 5           2            55  100     3      -0.1140115772E-01      55  100    3        -0.3681302535E+03      0.3681319759E+03
          0                 6           2            55  100     3       0.2180247729E-02      55  100    3         0.7708669697E+02      0.7708701597E+02

    ------------------------------------------------
       NWT REQUIRED            6 OUTER ITERATIONS 
       AND A TOTAL OF         31 INNER ITERATIONS.
    ------------------------------------------------

 NO OUTPUT CONTROL FOR STRESS PERIOD   46   TIME STEP    8
 
 SOLVING FOR HEAD 
                                                   Max.-Head-Change                         Max.-Flux-Residual
  Residual-Control   Outer-Iter.   Inner-Iter.     Column Row Layer    Maximum-Head-Change  Column Row Layer    Maximum-Flux-Residual          L2-NORM 
          0                 1          10            55   99     3      -0.4417478040E+01      55   99    3        -0.9575944883E+05      0.4652547759E+06
          0                 2           9            84   86     2      -0.2105868605E+01      61   58    1        -0.1066699299E+05      0.4824594722E+05
          0                 3           5            55  100     3      -0.7220692291E-01      55  100    3        -0.1935970908E+04      0.1945903938E+04
          0                 4           3            55  100     3       0.2998656760E-01      55  100    3         0.8825200127E+03      0.8826976824E+03
          0                 5           2            55  100     3      -0.8921328049E-02      55  100    3        -0.2878704166E+03      0.2878763928E+03

    ------------------------------------------------
       NWT REQUIRED            5 OUTER ITERATIONS 
       AND A TOTAL OF         29 INNER ITERATIONS.
    ------------------------------------------------

 NO OUTPUT CONTROL FOR STRESS PERIOD   46   TIME STEP    9
 
 SOLVING FOR HEAD 
                                                   Max.-Head-Change                         Max.-Flux-Residual
  Residual-Control   Outer-Iter.   Inner-Iter.     Column Row Layer    Maximum-Head-Change  Column Row Layer    Maximum-Flux-Residual          L2-NORM 
          0                 1          10            55   99     3      -0.4266115602E+01      55   99    3        -0.9224563510E+05      0.4507517429E+06
          0                 2           9            55   99     3       0.3791928543E+00      61   58    2         0.9161482772E+04      0.4734878395E+05
          0                 3           5            55  100     3      -0.5697506079E-01      55  100    3        -0.1526658687E+04      0.1783167271E+04
          0                 4           3            55  100     3       0.2363614890E-01      55  100    3         0.6952124936E+03      0.6952159961E+03
          0                 5           2            55  100     3      -0.7020142780E-02      55  100    3        -0.2263891666E+03      0.2263903962E+03

    ------------------------------------------------
       NWT REQUIRED            5 OUTER ITERATIONS 
       AND A TOTAL OF         29 INNER ITERATIONS.
    ------------------------------------------------

 NO OUTPUT CONTROL FOR STRESS PERIOD   46   TIME STEP   10
 
 SOLVING FOR HEAD 
                                                   Max.-Head-Change                         Max.-Flux-Residual
  Residual-Control   Outer-Iter.   Inner-Iter.     Column Row Layer    Maximum-Head-Change  Column Row Layer    Maximum-Flux-Residual          L2-NORM 
          0                 1          10            55   99     3      -0.4129607720E+01      55   99    3        -0.8907942242E+05      0.4388671118E+06
          0                 2           9            55   99     3       0.3671099471E+00      55   99    3         0.8792204033E+04      0.4431065424E+05
          0                 3           6            55  100     3      -0.4562548374E-01      55  100    3        -0.1221843634E+04      0.1340300019E+04
          0                 4           2            55  100     3       0.1889119605E-01      55  100    3         0.5553369765E+03      0.5572462266E+03
          0                 5           2            55  100     3      -0.5596253665E-02      55  100    3        -0.1803692520E+03      0.1804176776E+03

    ------------------------------------------------
       NWT REQUIRED            5 OUTER ITERATIONS 
       AND A TOTAL OF         29 INNER ITERATIONS.
    ------------------------------------------------

 NO OUTPUT CONTROL FOR STRESS PERIOD   46   TIME STEP   11
 
 SOLVING FOR HEAD 
                                                   Max.-Head-Change                         Max.-Flux-Residual
  Residual-Control   Outer-Iter.   Inner-Iter.     Column Row Layer    Maximum-Head-Change  Column Row Layer    Maximum-Flux-Residual          L2-NORM 
          0                 1          10            55   99     3      -0.4006422624E+01      55   99    3        -0.8622375302E+05      0.4293528747E+06
          0                 2           9            75   57     1      -0.1583850044E+01      65   45    1        -0.9213326537E+04      0.4486865903E+05
          0                 3           5            75   57     1       0.1307481914E+00      55  100    3        -0.9853752951E+03      0.1419074404E+04
          0                 4           3            55  100     3       0.1520944291E-01      55  100    3         0.4468666744E+03      0.4468903475E+03
          0                 5           2            55  100     3      -0.4492656435E-02      55  100    3        -0.1447221373E+03      0.1447228146E+03

    ------------------------------------------------
       NWT REQUIRED            5 OUTER ITERATIONS 
       AND A TOTAL OF         29 INNER ITERATIONS.
    ------------------------------------------------

 OUTPUT CONTROL FOR STRESS PERIOD   46   TIME STEP   12
    SAVE BUDGET
    SAVE HEAD FOR LAYERS:   1  2  3
 UBDSV1 SAVING "         STORAGE" ON UNIT  39 AT TIME STEP 12, STRESS PERIOD  46
 UBDSV2 SAVING "   CONSTANT HEAD" ON UNIT  39 AT TIME STEP 12, STRESS PERIOD  46
 UBDSV1 SAVING "FLOW RIGHT FACE " ON UNIT  39 AT TIME STEP 12, STRESS PERIOD  46
 UBDSV1 SAVING "FLOW FRONT FACE " ON UNIT  39 AT TIME STEP 12, STRESS PERIOD  46
 UBDSV1 SAVING "FLOW LOWER FACE " ON UNIT  39 AT TIME STEP 12, STRESS PERIOD  46
 UBDSV4 SAVING "           WELLS" ON UNIT  39 AT TIME STEP 12, STRESS PERIOD  46
 UBDSV3 SAVING "              ET" ON UNIT  39 AT TIME STEP 12, STRESS PERIOD  46
 UBDSV3 SAVING "        RECHARGE" ON UNIT  39 AT TIME STEP 12, STRESS PERIOD  46

 HEAD WILL BE SAVED ON UNIT   31 AT END OF TIME STEP   12, STRESS PERIOD   46
1
  VOLUMETRIC BUDGET FOR ENTIRE MODEL AT END OF TIME STEP   12, STRESS PERIOD  46
  ------------------------------------------------------------------------------

     CUMULATIVE VOLUMES      L**3       RATES FOR THIS TIME STEP      L**3/T
     ------------------                 ------------------------

           IN:                                      IN:
           ---                                      ---
             STORAGE =296994242560.0000               STORAGE =    13066538.0000
       CONSTANT HEAD = 27293878272.0000         CONSTANT HEAD =     2163758.0000
               WELLS = 20592756736.0000                 WELLS =     1225642.0000
                  ET =           0.0000                    ET =           0.0000
            RECHARGE =336600203264.0000              RECHARGE =    28895310.0000

            TOTAL IN =681481076736.0000              TOTAL IN =    45351248.0000

          OUT:                                     OUT:
          ----                                     ----
             STORAGE = 58112851968.0000               STORAGE =     6681554.0000
       CONSTANT HEAD = 56684257280.0000         CONSTANT HEAD =     2403615.2500
               WELLS =550117244928.0000                 WELLS =    34292212.0000
                  ET = 16566320128.0000                    ET =     1973842.6250
            RECHARGE =           0.0000              RECHARGE =           0.0000

           TOTAL OUT =681480683520.0000             TOTAL OUT =    45351224.0000

            IN - OUT =      393216.0000              IN - OUT =          24.0000

 PERCENT DISCREPANCY =           0.00     PERCENT DISCREPANCY =           0.00






         TIME SUMMARY AT END OF TIME STEP   12 IN STRESS PERIOD   46
                    SECONDS     MINUTES      HOURS       DAYS        YEARS
                    -----------------------------------------------------------
   TIME STEP LENGTH 2.62800E+06  43800.      730.00      30.417     8.32763E-02
 STRESS PERIOD TIME 3.15360E+07 5.25600E+05  8760.0      365.00     0.99932    
         TOTAL TIME 1.45170E+09 2.41949E+07 4.03249E+05  16802.      46.001    
1
1
                            STRESS PERIOD NO.   47, LENGTH =   365.0000    
                            -----------------------------------------------

                              NUMBER OF TIME STEPS =    12

                               MULTIPLIER FOR DELT =     1.000

                            INITIAL TIME STEP SIZE =   30.41667    

   1899 WELLS

 REUSING SURF FROM LAST STRESS PERIOD

 REUSING EVTR FROM LAST STRESS PERIOD

 REUSING EXDP FROM LAST STRESS PERIOD



                           RECHARGE
 READING ON UNIT   16 WITH FORMAT: (15F5.0)            


     63 TIME-VARIANT SPECIFIED-HEAD CELLS
 
 SOLVING FOR HEAD 
                                                   Max.-Head-Change                         Max.-Flux-Residual
  Residual-Control   Outer-Iter.   Inner-Iter.     Column Row Layer    Maximum-Head-Change  Column Row Layer    Maximum-Flux-Residual          L2-NORM 
          0                 1          11            84   50     3       0.4304481421E+02      58   96    3         0.4268693252E+06      0.1287971957E+07
          0                 2          10            23   44     2      -0.1411463825E+02      23   44    2        -0.2983748647E+06      0.3277292874E+06
          0                 3           8            23   45     2       0.3385411821E+01      23   44    2        -0.2673154451E+05      0.3011317498E+05
          0                 4           7            22   44     2       0.3043026396E+00      24   44    2         0.7478500331E+03      0.1228475162E+04
          0                 5           6            22   44     2       0.3042822615E-01      24   44    2         0.6716197050E+02      0.1142494745E+03
          0                 6           4            22   44     2       0.3040406657E-02      24   44    2         0.6030711379E+01      0.1058028531E+02

    ------------------------------------------------
       NWT REQUIRED            6 OUTER ITERATIONS 
       AND A TOTAL OF         46 INNER ITERATIONS.
    ------------------------------------------------

 NO OUTPUT CONTROL FOR STRESS PERIOD   47   TIME STEP    1
 
 SOLVING FOR HEAD 
                                                   Max.-Head-Change                         Max.-Flux-Residual
  Residual-Control   Outer-Iter.   Inner-Iter.     Column Row Layer    Maximum-Head-Change  Column Row Layer    Maximum-Flux-Residual          L2-NORM 
          0                 1          10            56   99     3       0.1113923878E+02      58   96    3         0.2833776382E+06      0.8270382194E+06
          0                 2           9            58   96     3      -0.1141997168E+01      58   96    3        -0.4176601106E+05      0.9250890647E+05
          0                 3           5            29   81     2       0.7468826349E-01      58   95    3        -0.6270386598E+03      0.6458637369E+03
          0                 4           3            29   81     2       0.1653596814E-02      64   45    1        -0.2117100008E+01      0.3492226328E+01

    ------------------------------------------------
       NWT REQUIRED            4 OUTER ITERATIONS 
       AND A TOTAL OF         27 INNER ITERATIONS.
    ------------------------------------------------

 NO OUTPUT CONTROL FOR STRESS PERIOD   47   TIME STEP    2
 
 SOLVING FOR HEAD 
                                                   Max.-Head-Change                         Max.-Flux-Residual
  Residual-Control   Outer-Iter.   Inner-Iter.     Column Row Layer    Maximum-Head-Change  Column Row Layer    Maximum-Flux-Residual          L2-NORM 
          0                 1          10            56   99     3       0.9644241452E+01      56   99    3         0.2324530083E+06      0.6650791780E+06
          0                 2           9            56   99     3      -0.8721594257E+00      56   99    3        -0.2340772695E+05      0.6984381041E+05
          0                 3           6            74   57     1       0.5987222041E-01      59   96    3        -0.1348475368E+04      0.1580809582E+04
          0                 4           3            74   57     1       0.4327393738E-03      74   57    1         0.1686264634E+01      0.1992861633E+01

    ------------------------------------------------
       NWT REQUIRED            4 OUTER ITERATIONS 
       AND A TOTAL OF         28 INNER ITERATIONS.
    ------------------------------------------------

 NO OUTPUT CONTROL FOR STRESS PERIOD   47   TIME STEP    3
 
 SOLVING FOR HEAD 
                                                   Max.-Head-Change                         Max.-Flux-Residual
  Residual-Control   Outer-Iter.   Inner-Iter.     Column Row Layer    Maximum-Head-Change  Column Row Layer    Maximum-Flux-Residual          L2-NORM 
          0                 1          10            56   99     3       0.8392045087E+01      56   99    3         0.2012714780E+06      0.5829301738E+06
          0                 2           9            56   99     3      -0.7595749594E+00      56   99    3        -0.2027036699E+05      0.5790987385E+05
          0                 3           5            23   46     2       0.5630246366E-01      75   60    1         0.2046811307E+03      0.3986573296E+03
          0                 4           3            23   46     2       0.4199705118E-03      57   99    3         0.1425525028E+02      0.1469103491E+02

    ------------------------------------------------
       NWT REQUIRED            4 OUTER ITERATIONS 
       AND A TOTAL OF         27 INNER ITERATIONS.
    ------------------------------------------------

 NO OUTPUT CONTROL FOR STRESS PERIOD   47   TIME STEP    4
 
 SOLVING FOR HEAD 
                                                   Max.-Head-Change                         Max.-Flux-Residual
  Residual-Control   Outer-Iter.   Inner-Iter.     Column Row Layer    Maximum-Head-Change  Column Row Layer    Maximum-Flux-Residual          L2-NORM 
          0                 1          10            56   99     3       0.7334481300E+01      56   99    3         0.1751479131E+06      0.5338992271E+06
          0                 2           9            23   46     2       0.1381182206E+01      56   99    3        -0.1763744613E+05      0.5427227956E+05
          0                 3           6            79   59     1       0.3744336441E-01      23   46    3        -0.2155071593E+03      0.2913095835E+03
          0                 4           4            79   59     1       0.3708167620E-03      21   17    2         0.9990646868E+01      0.1018928948E+02

    ------------------------------------------------
       NWT REQUIRED            4 OUTER ITERATIONS 
       AND A TOTAL OF         29 INNER ITERATIONS.
    ------------------------------------------------

 NO OUTPUT CONTROL FOR STRESS PERIOD   47   TIME STEP    5
 
 SOLVING FOR HEAD 
                                                   Max.-Head-Change                         Max.-Flux-Residual
  Residual-Control   Outer-Iter.   Inner-Iter.     Column Row Layer    Maximum-Head-Change  Column Row Layer    Maximum-Flux-Residual          L2-NORM 
          0                 1          10            56   99     3       0.6450293611E+01      56   99    3         0.1532082868E+06      0.5003593916E+06
          0                 2           9            56   99     3      -0.5832763138E+00      56   99    3        -0.1542648000E+05      0.5008282451E+05
          0                 3           5            79   57     1       0.4008904733E-02      21   17    2        -0.1583831188E+03      0.1740840582E+03

    ------------------------------------------------
       NWT REQUIRED            3 OUTER ITERATIONS 
       AND A TOTAL OF         24 INNER ITERATIONS.
    ------------------------------------------------

 NO OUTPUT CONTROL FOR STRESS PERIOD   47   TIME STEP    6
 
 SOLVING FOR HEAD 
                                                   Max.-Head-Change                         Max.-Flux-Residual
  Residual-Control   Outer-Iter.   Inner-Iter.     Column Row Layer    Maximum-Head-Change  Column Row Layer    Maximum-Flux-Residual          L2-NORM 
          0                 1          10            56   99     3       0.5691736668E+01      56   99    3         0.1346430420E+06      0.4763938333E+06
          0                 2           9            73   14     1      -0.1759128014E+01      56   99    3        -0.1355299049E+05      0.4984909508E+05
          0                 3           5            73   14     1       0.1534685028E+00      73   14    1         0.1202177147E+04      0.1440411147E+04
          0                 4           3            59   41     1      -0.1768401180E-02      59   41    1        -0.6875280978E+02      0.6891027862E+02

    ------------------------------------------------
       NWT REQUIRED            4 OUTER ITERATIONS 
       AND A TOTAL OF         27 INNER ITERATIONS.
    ------------------------------------------------

 NO OUTPUT CONTROL FOR STRESS PERIOD   47   TIME STEP    7
 
 SOLVING FOR HEAD 
                                                   Max.-Head-Change                         Max.-Flux-Residual
  Residual-Control   Outer-Iter.   Inner-Iter.     Column Row Layer    Maximum-Head-Change  Column Row Layer    Maximum-Flux-Residual          L2-NORM 
          0                 1          10            56   99     3       0.5041709898E+01      56   99    3         0.1188189121E+06      0.4580356778E+06
          0                 2           9            59   41     1      -0.9493014866E+00      56   99    3        -0.1195582297E+05      0.4658589917E+05
          0                 3           5            59   41     1       0.8104820111E-01      56   41    1         0.5506286364E+03      0.7327661001E+03
          0                 4           3            59   41     1       0.4498974934E-03      59   41    1         0.2432942199E+01      0.2688592014E+01

    ------------------------------------------------
       NWT REQUIRED            4 OUTER ITERATIONS 
       AND A TOTAL OF         27 INNER ITERATIONS.
    ------------------------------------------------

 NO OUTPUT CONTROL FOR STRESS PERIOD   47   TIME STEP    8
 
 SOLVING FOR HEAD 
                                                   Max.-Head-Change                         Max.-Flux-Residual
  Residual-Control   Outer-Iter.   Inner-Iter.     Column Row Layer    Maximum-Head-Change  Column Row Layer    Maximum-Flux-Residual          L2-NORM 
          0                 1          10            56   99     3       0.4480930102E+01      56   99    3         0.1052486000E+06      0.4432334011E+06
          0                 2           9            75   54     1      -0.6897615389E+00      56   99    3        -0.1058617409E+05      0.4490799940E+05
          0                 3           5            75   54     1       0.5978730372E-01      64   94    1         0.3716924327E+03      0.4829624658E+03
          0                 4           3            75   54     1       0.2605222721E-03      75   54    1         0.1132504992E+01      0.1851894863E+01

    ------------------------------------------------
       NWT REQUIRED            4 OUTER ITERATIONS 
       AND A TOTAL OF         27 INNER ITERATIONS.
    ------------------------------------------------

 NO OUTPUT CONTROL FOR STRESS PERIOD   47   TIME STEP    9
 
 SOLVING FOR HEAD 
                                                   Max.-Head-Change                         Max.-Flux-Residual
  Residual-Control   Outer-Iter.   Inner-Iter.     Column Row Layer    Maximum-Head-Change  Column Row Layer    Maximum-Flux-Residual          L2-NORM 
          0                 1          10            56   99     3       0.3996100324E+01      56   99    3         0.9355659019E+05      0.4308260741E+06
          0                 2           9            76   58     1      -0.3981177649E+00      70   19    2         0.1101293565E+05      0.4447282275E+05
          0                 3           5            76   58     1       0.3281281532E-01      76   58    1         0.1010086154E+03      0.1612988393E+03
          0                 4           3            76   58     1       0.2790873892E-03      59  100    1         0.1395744205E+01      0.2468342726E+01

    ------------------------------------------------
       NWT REQUIRED            4 OUTER ITERATIONS 
       AND A TOTAL OF         27 INNER ITERATIONS.
    ------------------------------------------------

 NO OUTPUT CONTROL FOR STRESS PERIOD   47   TIME STEP   10
 
 SOLVING FOR HEAD 
                                                   Max.-Head-Change                         Max.-Flux-Residual
  Residual-Control   Outer-Iter.   Inner-Iter.     Column Row Layer    Maximum-Head-Change  Column Row Layer    Maximum-Flux-Residual          L2-NORM 
          0                 1          10            56   99     3       0.3574990805E+01      56   99    3         0.8344012058E+05      0.4202804633E+06
          0                 2           9            23   41     2      -0.3922966824E+00      56   99    3        -0.8386057486E+04      0.4308947787E+05
          0                 3           5            40   76     2       0.1367930315E-01      24   41    2        -0.9164125083E+02      0.1498895509E+03
          0                 4           3            23   41     2       0.3235663461E-03      23   41    2         0.7229134454E+01      0.7398250187E+01

    ------------------------------------------------
       NWT REQUIRED            4 OUTER ITERATIONS 
       AND A TOTAL OF         27 INNER ITERATIONS.
    ------------------------------------------------

 NO OUTPUT CONTROL FOR STRESS PERIOD   47   TIME STEP   11
 
 SOLVING FOR HEAD 
                                                   Max.-Head-Change                         Max.-Flux-Residual
  Residual-Control   Outer-Iter.   Inner-Iter.     Column Row Layer    Maximum-Head-Change  Column Row Layer    Maximum-Flux-Residual          L2-NORM 
          0                 1          10            56   99     3       0.3207825932E+01      56   99    3         0.7465203938E+05      0.4113678020E+06
          0                 2           9            56   99     3      -0.2894896728E+00      76   57    2         0.9072957323E+04      0.4216363500E+05
          0                 3           5            56   99     2      -0.1602684984E-02      23   41    3        -0.7448231335E+02      0.1195317243E+03

    ------------------------------------------------
       NWT REQUIRED            3 OUTER ITERATIONS 
       AND A TOTAL OF         24 INNER ITERATIONS.
    ------------------------------------------------

 OUTPUT CONTROL FOR STRESS PERIOD   47   TIME STEP   12
    SAVE BUDGET
 UBDSV1 SAVING "         STORAGE" ON UNIT  39 AT TIME STEP 12, STRESS PERIOD  47
 UBDSV2 SAVING "   CONSTANT HEAD" ON UNIT  39 AT TIME STEP 12, STRESS PERIOD  47
 UBDSV1 SAVING "FLOW RIGHT FACE " ON UNIT  39 AT TIME STEP 12, STRESS PERIOD  47
 UBDSV1 SAVING "FLOW FRONT FACE " ON UNIT  39 AT TIME STEP 12, STRESS PERIOD  47
 UBDSV1 SAVING "FLOW LOWER FACE " ON UNIT  39 AT TIME STEP 12, STRESS PERIOD  47
 UBDSV4 SAVING "           WELLS" ON UNIT  39 AT TIME STEP 12, STRESS PERIOD  47
 UBDSV3 SAVING "              ET" ON UNIT  39 AT TIME STEP 12, STRESS PERIOD  47
 UBDSV3 SAVING "        RECHARGE" ON UNIT  39 AT TIME STEP 12, STRESS PERIOD  47
1
  VOLUMETRIC BUDGET FOR ENTIRE MODEL AT END OF TIME STEP   12, STRESS PERIOD  47
  ------------------------------------------------------------------------------

     CUMULATIVE VOLUMES      L**3       RATES FOR THIS TIME STEP      L**3/T
     ------------------                 ------------------------

           IN:                                      IN:
           ---                                      ---
             STORAGE =303088041984.0000               STORAGE =    15460083.0000
       CONSTANT HEAD = 28097101824.0000         CONSTANT HEAD =     2237144.2500
               WELLS = 21040113664.0000                 WELLS =     1225642.0000
                  ET =           0.0000                    ET =           0.0000
            RECHARGE =344540020736.0000              RECHARGE =    21752544.0000

            TOTAL IN =696765251584.0000              TOTAL IN =    40675412.0000

          OUT:                                     OUT:
          ----                                     ----
             STORAGE = 60059205632.0000               STORAGE =     4249968.5000
       CONSTANT HEAD = 57577639936.0000         CONSTANT HEAD =     2462955.0000
               WELLS =561942691840.0000                 WELLS =    32397412.0000
                  ET = 17185325056.0000                    ET =     1565082.6250
            RECHARGE =           0.0000              RECHARGE =           0.0000

           TOTAL OUT =696764858368.0000             TOTAL OUT =    40675420.0000

            IN - OUT =      393216.0000              IN - OUT =          -8.0000

 PERCENT DISCREPANCY =           0.00     PERCENT DISCREPANCY =          -0.00






         TIME SUMMARY AT END OF TIME STEP   12 IN STRESS PERIOD   47
                    SECONDS     MINUTES      HOURS       DAYS        YEARS
                    -----------------------------------------------------------
   TIME STEP LENGTH 2.62800E+06  43800.      730.00      30.417     8.32763E-02
 STRESS PERIOD TIME 3.15360E+07 5.25600E+05  8760.0      365.00     0.99932    
         TOTAL TIME 1.48323E+09 2.47205E+07 4.12009E+05  17167.      47.001    
1
1
                            STRESS PERIOD NO.   48, LENGTH =   365.0000    
                            -----------------------------------------------

                              NUMBER OF TIME STEPS =    12

                               MULTIPLIER FOR DELT =     1.000

                            INITIAL TIME STEP SIZE =   30.41667    

   1855 WELLS

 REUSING SURF FROM LAST STRESS PERIOD

 REUSING EVTR FROM LAST STRESS PERIOD

 REUSING EXDP FROM LAST STRESS PERIOD



                           RECHARGE
 READING ON UNIT   16 WITH FORMAT: (15F5.0)            


     63 TIME-VARIANT SPECIFIED-HEAD CELLS
 
 SOLVING FOR HEAD 
                                                   Max.-Head-Change                         Max.-Flux-Residual
  Residual-Control   Outer-Iter.   Inner-Iter.     Column Row Layer    Maximum-Head-Change  Column Row Layer    Maximum-Flux-Residual          L2-NORM 
          0                 1          11            84   56     3      -0.3424336519E+02      77   56    2         0.1520129107E+06      0.8196050785E+06
          0                 2          10            23   46     2      -0.1263361731E+02      23   46    2        -0.2862405951E+06      0.2983355715E+06
          0                 3           8            23   45     2       0.1552890904E+01      23   46    2        -0.2045070267E+05      0.2283857100E+05
          0                 4           7            23   45     2       0.1808204062E+00      23   45    2         0.5175291593E+03      0.1059228868E+04
          0                 5           6            23   45     2       0.1730446574E-01      23   45    2         0.4885192324E+02      0.9620723209E+02
          0                 6           5            23   45     2       0.1653924896E-02      23   45    2         0.4667792674E+01      0.8984553819E+01

    ------------------------------------------------
       NWT REQUIRED            6 OUTER ITERATIONS 
       AND A TOTAL OF         47 INNER ITERATIONS.
    ------------------------------------------------

 NO OUTPUT CONTROL FOR STRESS PERIOD   48   TIME STEP    1
 
 SOLVING FOR HEAD 
                                                   Max.-Head-Change                         Max.-Flux-Residual
  Residual-Control   Outer-Iter.   Inner-Iter.     Column Row Layer    Maximum-Head-Change  Column Row Layer    Maximum-Flux-Residual          L2-NORM 
          0                 1          10            84   56     3      -0.7511094359E+01      77   56    2         0.9074007898E+05      0.5617433712E+06
          0                 2           9            84   56     3       0.6825948721E+00      77   56    2        -0.9122178523E+04      0.5637832814E+05
          0                 3           5            66   22     1       0.1129847514E-01      60   70    1         0.3469957181E+03      0.3968619487E+03
          0                 4           3            22   36     2      -0.1553253116E-03      22   36    2        -0.5311877890E+01      0.6544130124E+01

    ------------------------------------------------
       NWT REQUIRED            4 OUTER ITERATIONS 
       AND A TOTAL OF         27 INNER ITERATIONS.
    ------------------------------------------------

 NO OUTPUT CONTROL FOR STRESS PERIOD   48   TIME STEP    2
 
 SOLVING FOR HEAD 
                                                   Max.-Head-Change                         Max.-Flux-Residual
  Residual-Control   Outer-Iter.   Inner-Iter.     Column Row Layer    Maximum-Head-Change  Column Row Layer    Maximum-Flux-Residual          L2-NORM 
          0                 1          10            56   99     3       0.3032224853E+01      56   99    3         0.7126747364E+05      0.4933867407E+06
          0                 2           9            56   99     3      -0.2734306495E+00      56   99    3        -0.7153945585E+04      0.4961032870E+05
          0                 3           5            58  100     2      -0.3593542977E-02      58  100    3         0.2813183439E+02      0.5762066384E+02

    ------------------------------------------------
       NWT REQUIRED            3 OUTER ITERATIONS 
       AND A TOTAL OF         24 INNER ITERATIONS.
    ------------------------------------------------

 NO OUTPUT CONTROL FOR STRESS PERIOD   48   TIME STEP    3
 
 SOLVING FOR HEAD 
                                                   Max.-Head-Change                         Max.-Flux-Residual
  Residual-Control   Outer-Iter.   Inner-Iter.     Column Row Layer    Maximum-Head-Change  Column Row Layer    Maximum-Flux-Residual          L2-NORM 
          0                 1          10            56   99     3       0.2703267931E+01      56   99    3         0.6333290998E+05      0.4612248602E+06
          0                 2           9            23   45     2      -0.4481112745E+00      23   45    2        -0.8182978535E+04      0.4718121807E+05
          0                 3           5            52   37     1       0.3465712282E-01      52   37    1         0.4703070468E+03      0.6486695809E+03
          0                 4           3            23   45     2       0.5653830751E-03      23   45    2         0.1188851120E+02      0.1604936461E+02

    ------------------------------------------------
       NWT REQUIRED            4 OUTER ITERATIONS 
       AND A TOTAL OF         27 INNER ITERATIONS.
    ------------------------------------------------

 NO OUTPUT CONTROL FOR STRESS PERIOD   48   TIME STEP    4
 
 SOLVING FOR HEAD 
                                                   Max.-Head-Change                         Max.-Flux-Residual
  Residual-Control   Outer-Iter.   Inner-Iter.     Column Row Layer    Maximum-Head-Change  Column Row Layer    Maximum-Flux-Residual          L2-NORM 
          0                 1          10            56   99     3       0.2417224613E+01      56   99    3         0.5646414581E+05      0.4421044764E+06
          0                 2           9            80   52     1      -0.9928625714E+00      80   52    1        -0.5613615639E+04      0.4486544819E+05
          0                 3           5            80   52     1       0.8327850937E-01      80   52    1         0.5158284348E+03      0.5621136001E+03
          0                 4           3            80   52     1       0.5951266182E-03      80   52    1         0.3606986392E+01      0.4043704491E+01

    ------------------------------------------------
       NWT REQUIRED            4 OUTER ITERATIONS 
       AND A TOTAL OF         27 INNER ITERATIONS.
    ------------------------------------------------

 NO OUTPUT CONTROL FOR STRESS PERIOD   48   TIME STEP    5
 
 SOLVING FOR HEAD 
                                                   Max.-Head-Change                         Max.-Flux-Residual
  Residual-Control   Outer-Iter.   Inner-Iter.     Column Row Layer    Maximum-Head-Change  Column Row Layer    Maximum-Flux-Residual          L2-NORM 
          0                 1          10            80   52     1      -0.2452559653E+01      90   52    1        -0.5249885068E+05      0.4292423605E+06
          0                 2           9            56   99     3      -0.2080150412E+00      90   52    1         0.5237054403E+04      0.4293125441E+05
          0                 3           5            54  107     2       0.1716614066E-02      59   50    1        -0.1477229693E+02      0.3398424559E+02

    ------------------------------------------------
       NWT REQUIRED            3 OUTER ITERATIONS 
       AND A TOTAL OF         24 INNER ITERATIONS.
    ------------------------------------------------

 NO OUTPUT CONTROL FOR STRESS PERIOD   48   TIME STEP    6
 
 SOLVING FOR HEAD 
                                                   Max.-Head-Change                         Max.-Flux-Residual
  Residual-Control   Outer-Iter.   Inner-Iter.     Column Row Layer    Maximum-Head-Change  Column Row Layer    Maximum-Flux-Residual          L2-NORM 
          0                 1          10            56   99     3       0.2128211929E+01      90   52    1        -0.5162086100E+05      0.4196264545E+06
          0                 2           9            55   81     2      -0.3596789447E+01      55   81    2        -0.1131405489E+05      0.4470274693E+05
          0                 3           6            55   81     2       0.3023181137E+00      60   63    1        -0.5845334065E+04      0.5992736144E+04
          0                 4           4            60   63     1      -0.4815719915E-02      60   63    1        -0.4740101265E+03      0.4787406482E+03

    ------------------------------------------------
       NWT REQUIRED            4 OUTER ITERATIONS 
       AND A TOTAL OF         29 INNER ITERATIONS.
    ------------------------------------------------

 NO OUTPUT CONTROL FOR STRESS PERIOD   48   TIME STEP    7
 
 SOLVING FOR HEAD 
                                                   Max.-Head-Change                         Max.-Flux-Residual
  Residual-Control   Outer-Iter.   Inner-Iter.     Column Row Layer    Maximum-Head-Change  Column Row Layer    Maximum-Flux-Residual          L2-NORM 
          0                 1          10            55   81     2      -0.2025380544E+01      90   52    1        -0.5080403991E+05      0.4120366947E+06
          0                 2           9            56   99     3      -0.1773446272E+00      60   63    1        -0.8253301559E+04      0.4249606452E+05
          0                 3           6            44   35     1      -0.2059795589E-01      44   35    1        -0.2367751702E+04      0.2507516797E+04
          0                 4           5            44   35     1      -0.1855333219E-02      44   35    1        -0.2131684495E+03      0.2132536731E+03

    ------------------------------------------------
       NWT REQUIRED            4 OUTER ITERATIONS 
       AND A TOTAL OF         30 INNER ITERATIONS.
    ------------------------------------------------

 NO OUTPUT CONTROL FOR STRESS PERIOD   48   TIME STEP    8
 
 SOLVING FOR HEAD 
                                                   Max.-Head-Change                         Max.-Flux-Residual
  Residual-Control   Outer-Iter.   Inner-Iter.     Column Row Layer    Maximum-Head-Change  Column Row Layer    Maximum-Flux-Residual          L2-NORM 
          0                 1          10            56   99     3       0.1815404095E+01      90   52    1        -0.5003566515E+05      0.4054742153E+06
          0                 2           9            36   29     1      -0.1647090288E+00      44   35    1        -0.7287692030E+04      0.4234819893E+05
          0                 3           6            36   29     1       0.1469546756E-01      44   35    1         0.7206550466E+03      0.9540103593E+03
          0                 4           3            30   31     1      -0.2122690577E-03      30   31    1        -0.1035366347E+02      0.1047054337E+02

    ------------------------------------------------
       NWT REQUIRED            4 OUTER ITERATIONS 
       AND A TOTAL OF         28 INNER ITERATIONS.
    ------------------------------------------------

 NO OUTPUT CONTROL FOR STRESS PERIOD   48   TIME STEP    9
 
 SOLVING FOR HEAD 
                                                   Max.-Head-Change                         Max.-Flux-Residual
  Residual-Control   Outer-Iter.   Inner-Iter.     Column Row Layer    Maximum-Head-Change  Column Row Layer    Maximum-Flux-Residual          L2-NORM 
          0                 1          10            56   99     3       0.1676860765E+01      90   52    1        -0.4923771305E+05      0.3996620663E+06
          0                 2           9            83   61     1      -0.1156137297E+01      90   52    1         0.4911283777E+04      0.4021511901E+05
          0                 3           5            83   61     1       0.6736495995E-01      30   31    1         0.3759616754E+03      0.4186627936E+03
          0                 4           3            83   61     1       0.2197920241E-02      83   61    1         0.2189237182E+01      0.2690593294E+01

    ------------------------------------------------
       NWT REQUIRED            4 OUTER ITERATIONS 
       AND A TOTAL OF         27 INNER ITERATIONS.
    ------------------------------------------------

 NO OUTPUT CONTROL FOR STRESS PERIOD   48   TIME STEP   10

 INTERPOLATION FOR HEAD OBS#  253, ID 3260-48-334  CHANGED BECAUSE AT LEAST ONE
 NEIGHBORING CELL REQUIRED FOR INTERPOLATION IS DRY OR INACTIVE (OBS2BAS7SE)

 INTERPOLATION FOR HEAD OBS#  637, ID 3014-48-334  CHANGED BECAUSE AT LEAST ONE
 NEIGHBORING CELL REQUIRED FOR INTERPOLATION IS DRY OR INACTIVE (OBS2BAS7SE)

 INTERPOLATION FOR HEAD OBS# 1339, ID 2869-48-334  CHANGED BECAUSE AT LEAST ONE
 NEIGHBORING CELL REQUIRED FOR INTERPOLATION IS DRY OR INACTIVE (OBS2BAS7SE)

 INTERPOLATION FOR HEAD OBS# 1402, ID 2840-48-334  CHANGED BECAUSE AT LEAST ONE
 NEIGHBORING CELL REQUIRED FOR INTERPOLATION IS DRY OR INACTIVE (OBS2BAS7SE)
 
 SOLVING FOR HEAD 
                                                   Max.-Head-Change                         Max.-Flux-Residual
  Residual-Control   Outer-Iter.   Inner-Iter.     Column Row Layer    Maximum-Head-Change  Column Row Layer    Maximum-Flux-Residual          L2-NORM 
          0                 1          10            83   61     1      -0.2464729562E+01      90   52    1        -0.4843136405E+05      0.3944663399E+06
          0                 2           9            76   57     1      -0.9640273905E+00      90   52    1         0.4830516617E+04      0.3977959840E+05
          0                 3           5            76   57     1       0.7512298722E-01      48   40    1         0.4742785512E+03      0.5271784971E+03
          0                 4           3            76   57     1       0.9740338869E-03      76   57    1         0.2134426615E+01      0.2630795235E+01

    ------------------------------------------------
       NWT REQUIRED            4 OUTER ITERATIONS 
       AND A TOTAL OF         27 INNER ITERATIONS.
    ------------------------------------------------

 NO OUTPUT CONTROL FOR STRESS PERIOD   48   TIME STEP   11

 INTERPOLATION FOR HEAD OBS#  650, ID 3055-48-335  CHANGED BECAUSE AT LEAST ONE
 NEIGHBORING CELL REQUIRED FOR INTERPOLATION IS DRY OR INACTIVE (OBS2BAS7SE)

 INTERPOLATION FOR HEAD OBS#  774, ID 3008-48-336  CHANGED BECAUSE AT LEAST ONE
 NEIGHBORING CELL REQUIRED FOR INTERPOLATION IS DRY OR INACTIVE (OBS2BAS7SE)

 INTERPOLATION FOR HEAD OBS# 1656, ID 2303-48-349  CHANGED BECAUSE AT LEAST ONE
 NEIGHBORING CELL REQUIRED FOR INTERPOLATION IS DRY OR INACTIVE (OBS2BAS7SE)

 INTERPOLATION FOR HEAD OBS# 2182, ID 2355-48-362  CHANGED BECAUSE AT LEAST ONE
 NEIGHBORING CELL REQUIRED FOR INTERPOLATION IS DRY OR INACTIVE (OBS2BAS7SE)

 INTERPOLATION FOR HEAD OBS# 3199, ID 2443-48-336  CHANGED BECAUSE AT LEAST ONE
 NEIGHBORING CELL REQUIRED FOR INTERPOLATION IS DRY OR INACTIVE (OBS2BAS7SE)

 INTERPOLATION FOR HEAD OBS# 3701, ID 1479-48-364  CHANGED BECAUSE AT LEAST ONE
 NEIGHBORING CELL REQUIRED FOR INTERPOLATION IS DRY OR INACTIVE (OBS2BAS7SE)

 INTERPOLATION FOR HEAD OBS# 3715, ID 1471-48-364  CHANGED BECAUSE AT LEAST ONE
 NEIGHBORING CELL REQUIRED FOR INTERPOLATION IS DRY OR INACTIVE (OBS2BAS7SE)

 INTERPOLATION FOR HEAD OBS# 3758, ID 1427-48-364  CHANGED BECAUSE AT LEAST ONE
 NEIGHBORING CELL REQUIRED FOR INTERPOLATION IS DRY OR INACTIVE (OBS2BAS7SE)

 INTERPOLATION FOR HEAD OBS# 3775, ID 1405-48-364  CHANGED BECAUSE AT LEAST ONE
 NEIGHBORING CELL REQUIRED FOR INTERPOLATION IS DRY OR INACTIVE (OBS2BAS7SE)

 INTERPOLATION FOR HEAD OBS# 5403, ID 1705-48-335  CHANGED BECAUSE AT LEAST ONE
 NEIGHBORING CELL REQUIRED FOR INTERPOLATION IS DRY OR INACTIVE (OBS2BAS7SE)

 INTERPOLATION FOR HEAD OBS# 5407, ID 1530-48-335  CHANGED BECAUSE AT LEAST ONE
 NEIGHBORING CELL REQUIRED FOR INTERPOLATION IS DRY OR INACTIVE (OBS2BAS7SE)

 INTERPOLATION FOR HEAD OBS# 5433, ID 846-48-348   CHANGED BECAUSE AT LEAST ONE
 NEIGHBORING CELL REQUIRED FOR INTERPOLATION IS DRY OR INACTIVE (OBS2BAS7SE)

 INTERPOLATION FOR HEAD OBS# 6246, ID 1164-48-336  CHANGED BECAUSE AT LEAST ONE
 NEIGHBORING CELL REQUIRED FOR INTERPOLATION IS DRY OR INACTIVE (OBS2BAS7SE)

 INTERPOLATION FOR HEAD OBS# 6254, ID 1084-48-338  CHANGED BECAUSE AT LEAST ONE
 NEIGHBORING CELL REQUIRED FOR INTERPOLATION IS DRY OR INACTIVE (OBS2BAS7SE)

 INTERPOLATION FOR HEAD OBS# 7001, ID 683-48-342   CHANGED BECAUSE AT LEAST ONE
 NEIGHBORING CELL REQUIRED FOR INTERPOLATION IS DRY OR INACTIVE (OBS2BAS7SE)

 INTERPOLATION FOR HEAD OBS# 7380, ID 451-48-336   CHANGED BECAUSE AT LEAST ONE
 NEIGHBORING CELL REQUIRED FOR INTERPOLATION IS DRY OR INACTIVE (OBS2BAS7SE)

 INTERPOLATION FOR HEAD OBS# 7386, ID 397-48-336   CHANGED BECAUSE AT LEAST ONE
 NEIGHBORING CELL REQUIRED FOR INTERPOLATION IS DRY OR INACTIVE (OBS2BAS7SE)

 INTERPOLATION FOR HEAD OBS# 7533, ID 269-48-337   CHANGED BECAUSE AT LEAST ONE
 NEIGHBORING CELL REQUIRED FOR INTERPOLATION IS DRY OR INACTIVE (OBS2BAS7SE)

 INTERPOLATION FOR HEAD OBS# 7563, ID 230-48-337   CHANGED BECAUSE AT LEAST ONE
 NEIGHBORING CELL REQUIRED FOR INTERPOLATION IS DRY OR INACTIVE (OBS2BAS7SE)

 INTERPOLATION FOR HEAD OBS# 7782, ID 178-48-336   CHANGED BECAUSE AT LEAST ONE
 NEIGHBORING CELL REQUIRED FOR INTERPOLATION IS DRY OR INACTIVE (OBS2BAS7SE)
 
 SOLVING FOR HEAD 
                                                   Max.-Head-Change                         Max.-Flux-Residual
  Residual-Control   Outer-Iter.   Inner-Iter.     Column Row Layer    Maximum-Head-Change  Column Row Layer    Maximum-Flux-Residual          L2-NORM 
          0                 1          10            76   57     1      -0.2691493791E+01      90   52    1        -0.4763129299E+05      0.3899037667E+06
          0                 2           9            76   57     1       0.2097736363E+00      80   59    2         0.5419467534E+04      0.3936979843E+05
          0                 3           5            76   57     1       0.2707976730E-02      59   50    1        -0.1759762893E+02      0.2959437882E+02

    ------------------------------------------------
       NWT REQUIRED            3 OUTER ITERATIONS 
       AND A TOTAL OF         24 INNER ITERATIONS.
    ------------------------------------------------

 OUTPUT CONTROL FOR STRESS PERIOD   48   TIME STEP   12
    SAVE BUDGET
 UBDSV1 SAVING "         STORAGE" ON UNIT  39 AT TIME STEP 12, STRESS PERIOD  48
 UBDSV2 SAVING "   CONSTANT HEAD" ON UNIT  39 AT TIME STEP 12, STRESS PERIOD  48
 UBDSV1 SAVING "FLOW RIGHT FACE " ON UNIT  39 AT TIME STEP 12, STRESS PERIOD  48
 UBDSV1 SAVING "FLOW FRONT FACE " ON UNIT  39 AT TIME STEP 12, STRESS PERIOD  48
 UBDSV1 SAVING "FLOW LOWER FACE " ON UNIT  39 AT TIME STEP 12, STRESS PERIOD  48
 UBDSV4 SAVING "           WELLS" ON UNIT  39 AT TIME STEP 12, STRESS PERIOD  48
 UBDSV3 SAVING "              ET" ON UNIT  39 AT TIME STEP 12, STRESS PERIOD  48
 UBDSV3 SAVING "        RECHARGE" ON UNIT  39 AT TIME STEP 12, STRESS PERIOD  48
1
  VOLUMETRIC BUDGET FOR ENTIRE MODEL AT END OF TIME STEP   12, STRESS PERIOD  48
  ------------------------------------------------------------------------------

     CUMULATIVE VOLUMES      L**3       RATES FOR THIS TIME STEP      L**3/T
     ------------------                 ------------------------

           IN:                                      IN:
           ---                                      ---
             STORAGE =309313011712.0000               STORAGE =    16279679.0000
       CONSTANT HEAD = 28946198528.0000         CONSTANT HEAD =     2352050.0000
               WELLS = 21487470592.0000                 WELLS =     1225642.0000
                  ET =           0.0000                    ET =           0.0000
            RECHARGE =351775981568.0000              RECHARGE =    19824122.0000

            TOTAL IN =711522648064.0000              TOTAL IN =    39681492.0000

          OUT:                                     OUT:
          ----                                     ----
             STORAGE = 61260992512.0000               STORAGE =     2645881.5000
       CONSTANT HEAD = 58452156416.0000         CONSTANT HEAD =     2382668.2500
               WELLS =574105321472.0000                 WELLS =    33321022.0000
                  ET = 17703694336.0000                    ET =     1331926.6250
            RECHARGE =           0.0000              RECHARGE =           0.0000

           TOTAL OUT =711522189312.0000             TOTAL OUT =    39681496.0000

            IN - OUT =      458752.0000              IN - OUT =          -4.0000

 PERCENT DISCREPANCY =           0.00     PERCENT DISCREPANCY =          -0.00






         TIME SUMMARY AT END OF TIME STEP   12 IN STRESS PERIOD   48
                    SECONDS     MINUTES      HOURS       DAYS        YEARS
                    -----------------------------------------------------------
   TIME STEP LENGTH 2.62800E+06  43800.      730.00      30.417     8.32763E-02
 STRESS PERIOD TIME 3.15360E+07 5.25600E+05  8760.0      365.00     0.99932    
         TOTAL TIME 1.51477E+09 2.52461E+07 4.20769E+05  17532.      48.000    
1
1
                            STRESS PERIOD NO.   49, LENGTH =   366.0000    
                            -----------------------------------------------

                              NUMBER OF TIME STEPS =    12

                               MULTIPLIER FOR DELT =     1.000

                            INITIAL TIME STEP SIZE =   30.50000    

   1883 WELLS

 REUSING SURF FROM LAST STRESS PERIOD

 REUSING EVTR FROM LAST STRESS PERIOD

 REUSING EXDP FROM LAST STRESS PERIOD



                           RECHARGE
 READING ON UNIT   16 WITH FORMAT: (15F5.0)            


     63 TIME-VARIANT SPECIFIED-HEAD CELLS
 
 SOLVING FOR HEAD 
                                                   Max.-Head-Change                         Max.-Flux-Residual
  Residual-Control   Outer-Iter.   Inner-Iter.     Column Row Layer    Maximum-Head-Change  Column Row Layer    Maximum-Flux-Residual          L2-NORM 
          0                 1          11            87   54     3      -0.8726537895E+02      57  113    1        -0.2259863502E+06      0.8481106234E+06
          0                 2           9            87   54     3       0.9651206013E+01      72   15    2         0.7170289521E+05      0.1329983955E+06
          0                 3           6            73   11     3       0.1828688923E+00      73   11    3         0.7027644587E+03      0.7716234320E+03
          0                 4           4            84   53     3      -0.2457979116E-02      30   32    1         0.8261943102E+01      0.1290019768E+02

    ------------------------------------------------
       NWT REQUIRED            4 OUTER ITERATIONS 
       AND A TOTAL OF         30 INNER ITERATIONS.
    ------------------------------------------------

 NO OUTPUT CONTROL FOR STRESS PERIOD   49   TIME STEP    1
 
 SOLVING FOR HEAD 
                                                   Max.-Head-Change                         Max.-Flux-Residual
  Residual-Control   Outer-Iter.   Inner-Iter.     Column Row Layer    Maximum-Head-Change  Column Row Layer    Maximum-Flux-Residual          L2-NORM 
          0                 1          10            83   52     3      -0.1759898571E+02      57  113    1        -0.1148053948E+06      0.5933842747E+06
          0                 2           9            83   52     3       0.1630472553E+01      73   11    3         0.1453708229E+05      0.6165740744E+05
          0                 3           5            80   60     1       0.3067964236E-01      80   60    1         0.7427269451E+02      0.1124602439E+03
          0                 4           2            80   60     1       0.3171150064E-03      80   60    1         0.7662236104E+00      0.1319996222E+01

    ------------------------------------------------
       NWT REQUIRED            4 OUTER ITERATIONS 
       AND A TOTAL OF         26 INNER ITERATIONS.
    ------------------------------------------------

 NO OUTPUT CONTROL FOR STRESS PERIOD   49   TIME STEP    2
 
 SOLVING FOR HEAD 
                                                   Max.-Head-Change                         Max.-Flux-Residual
  Residual-Control   Outer-Iter.   Inner-Iter.     Column Row Layer    Maximum-Head-Change  Column Row Layer    Maximum-Flux-Residual          L2-NORM 
          0                 1          10            84   53     3      -0.6046087992E+01      91   52    1        -0.8351563101E+05      0.5418741229E+06
          0                 2           9            75   58     1      -0.6408345196E+00      60   61    2         0.9040810057E+04      0.5587802147E+05
          0                 3           6            59   78     1      -0.8078976632E-01      60   61    1        -0.4132315682E+04      0.5836197853E+04
          0                 4           4            59   78     1      -0.7286163450E-02      60   61    1        -0.3721205140E+03      0.5235529707E+03

    ------------------------------------------------
       NWT REQUIRED            4 OUTER ITERATIONS 
       AND A TOTAL OF         29 INNER ITERATIONS.
    ------------------------------------------------

 NO OUTPUT CONTROL FOR STRESS PERIOD   49   TIME STEP    3
 
 SOLVING FOR HEAD 
                                                   Max.-Head-Change                         Max.-Flux-Residual
  Residual-Control   Outer-Iter.   Inner-Iter.     Column Row Layer    Maximum-Head-Change  Column Row Layer    Maximum-Flux-Residual          L2-NORM 
          0                 1          10            83   53     3      -0.3022390209E+01      91   52    1        -0.8086662170E+05      0.5179793024E+06
          0                 2           9            56   40     1      -0.4147180343E+00      90   52    1         0.1192514918E+05      0.5509990880E+05
          0                 3           5            56   40     1       0.3659991739E-01      60   61    1         0.1096824897E+04      0.1433916781E+04
          0                 4           3            85   85     2      -0.1410778352E-03      56   40    1         0.1271329779E+01      0.2076831715E+01

    ------------------------------------------------
       NWT REQUIRED            4 OUTER ITERATIONS 
       AND A TOTAL OF         27 INNER ITERATIONS.
    ------------------------------------------------

 NO OUTPUT CONTROL FOR STRESS PERIOD   49   TIME STEP    4
 
 SOLVING FOR HEAD 
                                                   Max.-Head-Change                         Max.-Flux-Residual
  Residual-Control   Outer-Iter.   Inner-Iter.     Column Row Layer    Maximum-Head-Change  Column Row Layer    Maximum-Flux-Residual          L2-NORM 
          0                 1          10            91   52     1      -0.2289925525E+01      91   52    1        -0.7847039108E+05      0.5023535338E+06
          0                 2           9            83   52     2       0.5256429972E+00      83   52    2         0.2362262221E+05      0.5641156518E+05
          0                 3           5            59   32     2       0.7033207769E-02      59   32    2         0.2206985230E+03      0.2631804532E+03

    ------------------------------------------------
       NWT REQUIRED            3 OUTER ITERATIONS 
       AND A TOTAL OF         24 INNER ITERATIONS.
    ------------------------------------------------

 NO OUTPUT CONTROL FOR STRESS PERIOD   49   TIME STEP    5
 
 SOLVING FOR HEAD 
                                                   Max.-Head-Change                         Max.-Flux-Residual
  Residual-Control   Outer-Iter.   Inner-Iter.     Column Row Layer    Maximum-Head-Change  Column Row Layer    Maximum-Flux-Residual          L2-NORM 
          0                 1          10            91   52     1      -0.2225958105E+01      91   52    1        -0.7620196491E+05      0.4895847518E+06
          0                 2           9            22   44     2      -0.5183291991E+00      59   32    2         0.1127823738E+05      0.5031356865E+05
          0                 3           5            22   44     2       0.4161725074E-01      53  116    1        -0.1247559088E+03      0.1685014084E+03
          0                 4           3            22   44     2       0.4393689439E-03      22   44    2         0.7522153216E+00      0.9189164505E+00

    ------------------------------------------------
       NWT REQUIRED            4 OUTER ITERATIONS 
       AND A TOTAL OF         27 INNER ITERATIONS.
    ------------------------------------------------

 NO OUTPUT CONTROL FOR STRESS PERIOD   49   TIME STEP    6
 
 SOLVING FOR HEAD 
                                                   Max.-Head-Change                         Max.-Flux-Residual
  Residual-Control   Outer-Iter.   Inner-Iter.     Column Row Layer    Maximum-Head-Change  Column Row Layer    Maximum-Flux-Residual          L2-NORM 
          0                 1          10            91   52     1      -0.2163992879E+01      91   52    1        -0.7404533309E+05      0.4791158468E+06
          0                 2           9            72   15     1      -0.3750989799E+00      91   52    1         0.7375231150E+04      0.4811417223E+05
          0                 3           5            72   15     1       0.3234591550E-01      72   15    1         0.2211064288E+03      0.3189562981E+03
          0                 4           3            39   33     1       0.2402038716E-03      59   63    1        -0.1420570195E+01      0.2301559445E+01

    ------------------------------------------------
       NWT REQUIRED            4 OUTER ITERATIONS 
       AND A TOTAL OF         27 INNER ITERATIONS.
    ------------------------------------------------

 NO OUTPUT CONTROL FOR STRESS PERIOD   49   TIME STEP    7
 
 SOLVING FOR HEAD 
                                                   Max.-Head-Change                         Max.-Flux-Residual
  Residual-Control   Outer-Iter.   Inner-Iter.     Column Row Layer    Maximum-Head-Change  Column Row Layer    Maximum-Flux-Residual          L2-NORM 
          0                 1          10            72   15     1      -0.3242457547E+01      91   52    1        -0.7198278934E+05      0.4706153716E+06
          0                 2           9            86   57     2      -0.2070008843E+01      91   52    1         0.7170410993E+04      0.4720953263E+05
          0                 3           5            86   57     2       0.1774787745E-01      86   57    3        -0.4490819836E+02      0.5927350011E+02
          0                 4           2            86   57     2       0.1461046226E-02      86   57    3         0.3930919033E+01      0.3980267011E+01

    ------------------------------------------------
       NWT REQUIRED            4 OUTER ITERATIONS 
       AND A TOTAL OF         26 INNER ITERATIONS.
    ------------------------------------------------

 NO OUTPUT CONTROL FOR STRESS PERIOD   49   TIME STEP    8
 
 SOLVING FOR HEAD 
                                                   Max.-Head-Change                         Max.-Flux-Residual
  Residual-Control   Outer-Iter.   Inner-Iter.     Column Row Layer    Maximum-Head-Change  Column Row Layer    Maximum-Flux-Residual          L2-NORM 
          0                 1          10            86   57     2      -0.7700943492E+01      91   52    1        -0.7001452199E+05      0.4639448279E+06
          0                 2           9            76   62     1      -0.8825045576E+00      56   82    3         0.1347369478E+05      0.4897388574E+05
          0                 3           6            76   62     1       0.7293596026E-01      46   31    1         0.3244767965E+03      0.4127355109E+03
          0                 4           3            76   62     1       0.6074827446E-03      76   62    1         0.1703962372E+01      0.1807153166E+01

    ------------------------------------------------
       NWT REQUIRED            4 OUTER ITERATIONS 
       AND A TOTAL OF         28 INNER ITERATIONS.
    ------------------------------------------------

 NO OUTPUT CONTROL FOR STRESS PERIOD   49   TIME STEP    9
 
 SOLVING FOR HEAD 
                                                   Max.-Head-Change                         Max.-Flux-Residual
  Residual-Control   Outer-Iter.   Inner-Iter.     Column Row Layer    Maximum-Head-Change  Column Row Layer    Maximum-Flux-Residual          L2-NORM 
          0                 1          10            91   52     1      -0.1994804575E+01      91   52    1        -0.6813862059E+05      0.4576556886E+06
          0                 2           9            79   52     1      -0.3491122550E+01      79   52    1        -0.1574740696E+05      0.4911179901E+05
          0                 3           5            79   52     1       0.2860533969E+00      79   52    1         0.1421079950E+04      0.1661193051E+04
          0                 4           3            79   52     1       0.2485981530E-02      79   52    1         0.1209428459E+02      0.1321306496E+02

    ------------------------------------------------
       NWT REQUIRED            4 OUTER ITERATIONS 
       AND A TOTAL OF         27 INNER ITERATIONS.
    ------------------------------------------------

 NO OUTPUT CONTROL FOR STRESS PERIOD   49   TIME STEP   10
 
 SOLVING FOR HEAD 
                                                   Max.-Head-Change                         Max.-Flux-Residual
  Residual-Control   Outer-Iter.   Inner-Iter.     Column Row Layer    Maximum-Head-Change  Column Row Layer    Maximum-Flux-Residual          L2-NORM 
          0                 1          10            82   48     1      -0.2459168451E+01      91   52    1        -0.6635124680E+05      0.4523837297E+06
          0                 2           9            70   99     1      -0.5153026124E+00      60   62    2         0.1501457372E+05      0.4854589819E+05
          0                 3           5            61   60     1      -0.5891634893E-01      61   60    1        -0.3934036479E+04      0.3937516498E+04
          0                 4           4            61   60     1      -0.5309069728E-02      61   60    1        -0.3543829912E+03      0.3544212550E+03

    ------------------------------------------------
       NWT REQUIRED            4 OUTER ITERATIONS 
       AND A TOTAL OF         28 INNER ITERATIONS.
    ------------------------------------------------

 NO OUTPUT CONTROL FOR STRESS PERIOD   49   TIME STEP   11
 
 SOLVING FOR HEAD 
                                                   Max.-Head-Change                         Max.-Flux-Residual
  Residual-Control   Outer-Iter.   Inner-Iter.     Column Row Layer    Maximum-Head-Change  Column Row Layer    Maximum-Flux-Residual          L2-NORM 
          0                 1          10            77   54     1      -0.2229310659E+01      91   52    1        -0.6467181130E+05      0.4475471424E+06
          0                 2           9            56   84     3       0.5135388745E+00      56   84    3         0.1448153851E+05      0.4820300593E+05
          0                 3           5            73   54     1       0.2154825905E-01      61   60    1         0.6037654662E+03      0.7376762911E+03
          0                 4           2            85   85     2      -0.1478908335E-03      59   50    1         0.5554221496E+00      0.1006220646E+01

    ------------------------------------------------
       NWT REQUIRED            4 OUTER ITERATIONS 
       AND A TOTAL OF         26 INNER ITERATIONS.
    ------------------------------------------------

 OUTPUT CONTROL FOR STRESS PERIOD   49   TIME STEP   12
    SAVE BUDGET
 UBDSV1 SAVING "         STORAGE" ON UNIT  39 AT TIME STEP 12, STRESS PERIOD  49
 UBDSV2 SAVING "   CONSTANT HEAD" ON UNIT  39 AT TIME STEP 12, STRESS PERIOD  49
 UBDSV1 SAVING "FLOW RIGHT FACE " ON UNIT  39 AT TIME STEP 12, STRESS PERIOD  49
 UBDSV1 SAVING "FLOW FRONT FACE " ON UNIT  39 AT TIME STEP 12, STRESS PERIOD  49
 UBDSV1 SAVING "FLOW LOWER FACE " ON UNIT  39 AT TIME STEP 12, STRESS PERIOD  49
 UBDSV4 SAVING "           WELLS" ON UNIT  39 AT TIME STEP 12, STRESS PERIOD  49
 UBDSV3 SAVING "              ET" ON UNIT  39 AT TIME STEP 12, STRESS PERIOD  49
 UBDSV3 SAVING "        RECHARGE" ON UNIT  39 AT TIME STEP 12, STRESS PERIOD  49
1
  VOLUMETRIC BUDGET FOR ENTIRE MODEL AT END OF TIME STEP   12, STRESS PERIOD  49
  ------------------------------------------------------------------------------

     CUMULATIVE VOLUMES      L**3       RATES FOR THIS TIME STEP      L**3/T
     ------------------                 ------------------------

           IN:                                      IN:
           ---                                      ---
             STORAGE =315947909120.0000               STORAGE =    17525772.0000
       CONSTANT HEAD = 29773565952.0000         CONSTANT HEAD =     2231902.5000
               WELLS = 21936056320.0000                 WELLS =     1225642.0000
                  ET =           0.0000                    ET =           0.0000
            RECHARGE =358446891008.0000              RECHARGE =    18226870.0000

            TOTAL IN =726104408064.0000              TOTAL IN =    39210184.0000

          OUT:                                     OUT:
          ----                                     ----
             STORAGE = 62071484416.0000               STORAGE =     1761493.1250
       CONSTANT HEAD = 59279642624.0000         CONSTANT HEAD =     2199361.5000
               WELLS =586634756096.0000                 WELLS =    34232744.0000
                  ET = 18118309888.0000                    ET =     1016587.5000
            RECHARGE =           0.0000              RECHARGE =           0.0000

           TOTAL OUT =726104211456.0000             TOTAL OUT =    39210184.0000

            IN - OUT =      196608.0000              IN - OUT =           0.0000

 PERCENT DISCREPANCY =           0.00     PERCENT DISCREPANCY =           0.00






         TIME SUMMARY AT END OF TIME STEP   12 IN STRESS PERIOD   49
                    SECONDS     MINUTES      HOURS       DAYS        YEARS
                    -----------------------------------------------------------
   TIME STEP LENGTH 2.63520E+06  43920.      732.00      30.500     8.35044E-02
 STRESS PERIOD TIME 3.16224E+07 5.27040E+05  8784.0      366.00      1.0021    
         TOTAL TIME 1.54639E+09 2.57732E+07 4.29553E+05  17898.      49.002    
1
1
                            STRESS PERIOD NO.   50, LENGTH =   365.0000    
                            -----------------------------------------------

                              NUMBER OF TIME STEPS =    12

                               MULTIPLIER FOR DELT =     1.000

                            INITIAL TIME STEP SIZE =   30.41667    

   1850 WELLS

 REUSING SURF FROM LAST STRESS PERIOD

 REUSING EVTR FROM LAST STRESS PERIOD

 REUSING EXDP FROM LAST STRESS PERIOD



                           RECHARGE
 READING ON UNIT   16 WITH FORMAT: (15F5.0)            


     63 TIME-VARIANT SPECIFIED-HEAD CELLS
 
 SOLVING FOR HEAD 
                                                   Max.-Head-Change                         Max.-Flux-Residual
  Residual-Control   Outer-Iter.   Inner-Iter.     Column Row Layer    Maximum-Head-Change  Column Row Layer    Maximum-Flux-Residual          L2-NORM 
          0                 1          11            80   52     3      -0.2611443618E+02      56   99    3        -0.2428956558E+06      0.9141198840E+06
          0                 2           9            78   52     2       0.2832300541E+01      78   52    2         0.8942725427E+05      0.1290748686E+06
          0                 3           6            74   56     1       0.6604837845E-01      84   50    2        -0.5677529287E+03      0.9793047124E+03
          0                 4           5            18   38     2      -0.3718541398E-03      18   38    3        -0.2569565563E+02      0.2871531296E+02

    ------------------------------------------------
       NWT REQUIRED            4 OUTER ITERATIONS 
       AND A TOTAL OF         31 INNER ITERATIONS.
    ------------------------------------------------

 NO OUTPUT CONTROL FOR STRESS PERIOD   50   TIME STEP    1
 
 SOLVING FOR HEAD 
                                                   Max.-Head-Change                         Max.-Flux-Residual
  Residual-Control   Outer-Iter.   Inner-Iter.     Column Row Layer    Maximum-Head-Change  Column Row Layer    Maximum-Flux-Residual          L2-NORM 
          0                 1          10            56   99     3      -0.8829422684E+01      56   99    3        -0.2150050594E+06      0.6987039222E+06
          0                 2           9            56   99     3       0.7897046204E+00      56   99    3         0.2133938235E+05      0.6981404814E+05
          0                 3           5            56   99     2       0.4232965919E-02      56   99    2         0.1836153645E+02      0.4359118465E+02

    ------------------------------------------------
       NWT REQUIRED            3 OUTER ITERATIONS 
       AND A TOTAL OF         24 INNER ITERATIONS.
    ------------------------------------------------

 NO OUTPUT CONTROL FOR STRESS PERIOD   50   TIME STEP    2
 
 SOLVING FOR HEAD 
                                                   Max.-Head-Change                         Max.-Flux-Residual
  Residual-Control   Outer-Iter.   Inner-Iter.     Column Row Layer    Maximum-Head-Change  Column Row Layer    Maximum-Flux-Residual          L2-NORM 
          0                 1          10            56   99     3      -0.7658134076E+01      56   99    3        -0.1845655066E+06      0.6467309133E+06
          0                 2           9            65    7     2      -0.2074305632E+01      56   99    3         0.1831600439E+05      0.6523514968E+05
          0                 3           5            65    7     2       0.9778886534E-01      90   51    1         0.1974913058E+03      0.2226473049E+03
          0                 4           2            65    7     2       0.4274375308E-02      65    7    2         0.2473877630E+01      0.2944857747E+01

    ------------------------------------------------
       NWT REQUIRED            4 OUTER ITERATIONS 
       AND A TOTAL OF         26 INNER ITERATIONS.
    ------------------------------------------------

 NO OUTPUT CONTROL FOR STRESS PERIOD   50   TIME STEP    3
 
 SOLVING FOR HEAD 
                                                   Max.-Head-Change                         Max.-Flux-Residual
  Residual-Control   Outer-Iter.   Inner-Iter.     Column Row Layer    Maximum-Head-Change  Column Row Layer    Maximum-Flux-Residual          L2-NORM 
          0                 1          10            56   99     3      -0.6702901635E+01      56   99    3        -0.1600723365E+06      0.6186212065E+06
          0                 2           9            56   82     2      -0.1131633800E+01      56   99    3         0.1589087523E+05      0.6396448914E+05
          0                 3           5            56   82     2       0.9572509767E-01      37   29    1         0.6346585473E+03      0.7731313901E+03
          0                 4           2            56   82     2       0.6044499942E-03      56   82    2         0.2226726947E+01      0.2395717229E+01

    ------------------------------------------------
       NWT REQUIRED            4 OUTER ITERATIONS 
       AND A TOTAL OF         26 INNER ITERATIONS.
    ------------------------------------------------

 NO OUTPUT CONTROL FOR STRESS PERIOD   50   TIME STEP    4
 
 SOLVING FOR HEAD 
                                                   Max.-Head-Change                         Max.-Flux-Residual
  Residual-Control   Outer-Iter.   Inner-Iter.     Column Row Layer    Maximum-Head-Change  Column Row Layer    Maximum-Flux-Residual          L2-NORM 
          0                 1          10            56   99     3      -0.5915309631E+01      56   99    3        -0.1400939336E+06      0.5988302143E+06
          0                 2           9            81   52     1      -0.5210292866E+01      80   45    2         0.1906726603E+05      0.6549461311E+05
          0                 3           5            81   52     1       0.4120430906E+00      80   59    1        -0.2705459543E+04      0.3167113162E+04
          0                 4           3            80   59     1      -0.8752884344E-02      80   59    1        -0.2438494780E+03      0.2445409273E+03

    ------------------------------------------------
       NWT REQUIRED            4 OUTER ITERATIONS 
       AND A TOTAL OF         27 INNER ITERATIONS.
    ------------------------------------------------

 NO OUTPUT CONTROL FOR STRESS PERIOD   50   TIME STEP    5
 
 SOLVING FOR HEAD 
                                                   Max.-Head-Change                         Max.-Flux-Residual
  Residual-Control   Outer-Iter.   Inner-Iter.     Column Row Layer    Maximum-Head-Change  Column Row Layer    Maximum-Flux-Residual          L2-NORM 
          0                 1          10            56   99     3      -0.5260016704E+01      56   99    3        -0.1236208709E+06      0.5841956313E+06
          0                 2           9            80   59     1      -0.3349565833E+01      56   99    3         0.1228859376E+05      0.5952657006E+05
          0                 3           5            80   59     1       0.2609170691E+00      80   59    1         0.4732157284E+03      0.4998770285E+03
          0                 4           2            80   59     1       0.3409767863E-02      64   28    1        -0.7321986087E+01      0.9610640665E+01

    ------------------------------------------------
       NWT REQUIRED            4 OUTER ITERATIONS 
       AND A TOTAL OF         26 INNER ITERATIONS.
    ------------------------------------------------

 NO OUTPUT CONTROL FOR STRESS PERIOD   50   TIME STEP    6
 
 SOLVING FOR HEAD 
                                                   Max.-Head-Change                         Max.-Flux-Residual
  Residual-Control   Outer-Iter.   Inner-Iter.     Column Row Layer    Maximum-Head-Change  Column Row Layer    Maximum-Flux-Residual          L2-NORM 
          0                 1          10            55   99     3      -0.5000554362E+01      56   99    3        -0.1099150471E+06      0.5724883288E+06
          0                 2           9            56   84     2      -0.1422699594E+01      53   37    2         0.1590346573E+05      0.6103537983E+05
          0                 3           5            56   84     2       0.1207076625E+00      64   28    1         0.6199553970E+03      0.8118052443E+03
          0                 4           2            56   84     2       0.7309775240E-03      56   84    2         0.2817626176E+01      0.3442348228E+01

    ------------------------------------------------
       NWT REQUIRED            4 OUTER ITERATIONS 
       AND A TOTAL OF         26 INNER ITERATIONS.
    ------------------------------------------------

 NO OUTPUT CONTROL FOR STRESS PERIOD   50   TIME STEP    7
 
 SOLVING FOR HEAD 
                                                   Max.-Head-Change                         Max.-Flux-Residual
  Residual-Control   Outer-Iter.   Inner-Iter.     Column Row Layer    Maximum-Head-Change  Column Row Layer    Maximum-Flux-Residual          L2-NORM 
          0                 1          10            55   99     3      -0.4897878159E+01      55   99    3        -0.1041469519E+06      0.5614779492E+06
          0                 2           9            55   99     3       0.4373203353E+01      55   99    3         0.1027539541E+06      0.1172216841E+06
          0                 3           6            55   99     3      -0.3573981576E+01      55   99    3        -0.9242604338E+05      0.9243115801E+05
          0                 4           3            55   99     3       0.2155318759E+01      55   99    3         0.6113196626E+05      0.6113203514E+05
          0                 5           3            55   99     3      -0.1514384066E+01      55   99    3        -0.4710030347E+05      0.4710032605E+05
          0                 6           3            55   99     3       0.7882893162E+00      55   99    3         0.2684116289E+05      0.2684118094E+05
          0                 7           3            55   99     3      -0.3689559423E+00      55   99    3        -0.1373721720E+05      0.1373722291E+05
          0                 8           2            55   99     3       0.1196773450E+00      55   99    3         0.4866212792E+04      0.4866216284E+04
          0                 9           2            55   99     3      -0.2844276868E-01      55   99    3        -0.1260287961E+04      0.1260288668E+04
          0                10           1            55   99     3       0.3899540403E-02      55   99    3         0.1882622679E+03      0.1882632241E+03

    ------------------------------------------------
       NWT REQUIRED           10 OUTER ITERATIONS 
       AND A TOTAL OF         42 INNER ITERATIONS.
    ------------------------------------------------

 NO OUTPUT CONTROL FOR STRESS PERIOD   50   TIME STEP    8
 
 SOLVING FOR HEAD 
                                                   Max.-Head-Change                         Max.-Flux-Residual
  Residual-Control   Outer-Iter.   Inner-Iter.     Column Row Layer    Maximum-Head-Change  Column Row Layer    Maximum-Flux-Residual          L2-NORM 
          0                 1          10            56   99     3      -0.3820382830E+01      56   99    3        -0.8835333099E+05      0.5467178785E+06
          0                 2           9            55   99     3       0.3808344963E+01      55   99    3         0.8945046929E+05      0.1046164280E+06
          0                 3           5            55   99     3      -0.3815333718E+01      55   99    3        -0.9862973817E+05      0.9862980671E+05
          0                 4           3            55   99     3       0.3166442897E+01      55   99    3         0.8976216955E+05      0.8976222556E+05
          0                 5           3            55   99     3      -0.2151170635E+01      55   99    3        -0.6691650889E+05      0.6691655162E+05
          0                 6           3            55   99     3       0.1338439963E+01      55   99    3         0.4555901794E+05      0.4555904030E+05
          0                 7           3            55   99     3      -0.6467887387E+00      55   99    3        -0.2408490861E+05      0.2408492196E+05
          0                 8           2            55   99     3       0.2555921861E+00      55   99    3         0.1038932346E+05      0.1038932842E+05
          0                 9           2            55   99     3      -0.7104956894E-01      55   99    3        -0.3149111188E+04      0.3149113694E+04
          0                10           2            55   99     3       0.1310443131E-01      55   99    3         0.6319081578E+03      0.6319094735E+03
          0                11           1            55   99     3      -0.1229987391E-02      55   99    3        -0.6451993192E+02      0.6452311278E+02

    ------------------------------------------------
       NWT REQUIRED           11 OUTER ITERATIONS 
       AND A TOTAL OF         43 INNER ITERATIONS.
    ------------------------------------------------

 NO OUTPUT CONTROL FOR STRESS PERIOD   50   TIME STEP    9
 
 SOLVING FOR HEAD 
                                                   Max.-Head-Change                         Max.-Flux-Residual
  Residual-Control   Outer-Iter.   Inner-Iter.     Column Row Layer    Maximum-Head-Change  Column Row Layer    Maximum-Flux-Residual          L2-NORM 
          0                 1          10            56   99     3      -0.3439373773E+01      56   99    3        -0.7944404204E+05      0.5352343413E+06
          0                 2           9            55   99     3       0.1672502588E+01      55   99    3         0.3927614072E+05      0.6679636670E+05
          0                 3           5            55   99     3      -0.1723324904E+01      55   99    3        -0.4454075484E+05      0.4456610341E+05
          0                 4           3            55   99     3       0.1464510677E+01      55   99    3         0.4153134925E+05      0.4153158239E+05
          0                 5           3            55   99     3      -0.9873954706E+00      55   99    3        -0.3071347228E+05      0.3071349100E+05
          0                 6           3            55   99     3       0.5794043108E+00      55   99    3         0.1972820139E+05      0.1972821013E+05
          0                 7           2            55   99     3      -0.2486666071E+00      55   99    3        -0.9261027387E+04      0.9261032453E+04
          0                 8           2            55   99     3       0.8483831204E-01      55   99    3         0.3449202911E+04      0.3449204337E+04
          0                 9           2            55   99     3      -0.1911797487E-01      55   99    3        -0.8475832198E+03      0.8475838762E+03
          0                10           1            55   99     3       0.2583990363E-02      55   99    3         0.1245872734E+03      0.1245874829E+03

    ------------------------------------------------
       NWT REQUIRED           10 OUTER ITERATIONS 
       AND A TOTAL OF         40 INNER ITERATIONS.
    ------------------------------------------------

 NO OUTPUT CONTROL FOR STRESS PERIOD   50   TIME STEP   10
 
 SOLVING FOR HEAD 
                                                   Max.-Head-Change                         Max.-Flux-Residual
  Residual-Control   Outer-Iter.   Inner-Iter.     Column Row Layer    Maximum-Head-Change  Column Row Layer    Maximum-Flux-Residual          L2-NORM 
          0                 1          10            56   99     3      -0.3113918979E+01      56   99    3        -0.7169062381E+05      0.5276952072E+06
          0                 2           9            82   52     1      -0.3204998363E+01      55   99    3         0.1717557973E+05      0.5711701985E+05
          0                 3           5            55   99     3      -0.7177791007E+00      55   99    3        -0.1855312723E+05      0.1858810843E+05
          0                 4           3            55   99     3       0.5837488995E+00      55   99    3         0.1655985489E+05      0.1655986772E+05
          0                 5           3            55   99     3      -0.3767179478E+00      55   99    3        -0.1171922426E+05      0.1171923070E+05
          0                 6           2            55   99     3       0.2010785050E+00      55   99    3         0.6848628060E+04      0.6848631432E+04
          0                 7           2            55   99     3      -0.7874088881E-01      55   99    3        -0.2933031618E+04      0.2933033281E+04
          0                 8           2            55   99     3       0.2299777395E-01      55   99    3         0.9352529559E+03      0.9352533901E+03
          0                 9           1            55   99     3      -0.4277320734E-02      55   99    3        -0.1896696223E+03      0.1896697588E+03

    ------------------------------------------------
       NWT REQUIRED            9 OUTER ITERATIONS 
       AND A TOTAL OF         37 INNER ITERATIONS.
    ------------------------------------------------

 NO OUTPUT CONTROL FOR STRESS PERIOD   50   TIME STEP   11
 
 SOLVING FOR HEAD 
                                                   Max.-Head-Change                         Max.-Flux-Residual
  Residual-Control   Outer-Iter.   Inner-Iter.     Column Row Layer    Maximum-Head-Change  Column Row Layer    Maximum-Flux-Residual          L2-NORM 
          0                 1          10            82   52     1      -0.1065132432E+02      81   46    1        -0.6764246104E+05      0.5219208546E+06
          0                 2           9            82   52     1       0.7199951554E+00      77   46    2         0.8675669831E+04      0.5395828864E+05
          0                 3           5            55   99     3      -0.3260870009E+00      55   99    3        -0.8429981550E+04      0.8445611966E+04
          0                 4           3            55   99     3       0.2538021544E+00      55   99    3         0.7201731886E+04      0.7201736132E+04
          0                 5           2            55   99     3      -0.1571450515E+00      55   99    3        -0.4889377879E+04      0.4889380818E+04
          0                 6           2            55   99     3       0.7817249400E-01      55   99    3         0.2663160457E+04      0.2663161950E+04
          0                 7           2            55   99     3      -0.2866887079E-01      55   99    3        -0.1068085110E+04      0.1068085760E+04
          0                 8           2            55   99     3       0.7532853975E-02      55   99    3         0.3064120870E+03      0.3064122520E+03

    ------------------------------------------------
       NWT REQUIRED            8 OUTER ITERATIONS 
       AND A TOTAL OF         35 INNER ITERATIONS.
    ------------------------------------------------

 OUTPUT CONTROL FOR STRESS PERIOD   50   TIME STEP   12
    SAVE BUDGET
 UBDSV1 SAVING "         STORAGE" ON UNIT  39 AT TIME STEP 12, STRESS PERIOD  50
 UBDSV2 SAVING "   CONSTANT HEAD" ON UNIT  39 AT TIME STEP 12, STRESS PERIOD  50
 UBDSV1 SAVING "FLOW RIGHT FACE " ON UNIT  39 AT TIME STEP 12, STRESS PERIOD  50
 UBDSV1 SAVING "FLOW FRONT FACE " ON UNIT  39 AT TIME STEP 12, STRESS PERIOD  50
 UBDSV1 SAVING "FLOW LOWER FACE " ON UNIT  39 AT TIME STEP 12, STRESS PERIOD  50
 UBDSV4 SAVING "           WELLS" ON UNIT  39 AT TIME STEP 12, STRESS PERIOD  50
 UBDSV3 SAVING "              ET" ON UNIT  39 AT TIME STEP 12, STRESS PERIOD  50
 UBDSV3 SAVING "        RECHARGE" ON UNIT  39 AT TIME STEP 12, STRESS PERIOD  50
1
  VOLUMETRIC BUDGET FOR ENTIRE MODEL AT END OF TIME STEP   12, STRESS PERIOD  50
  ------------------------------------------------------------------------------

     CUMULATIVE VOLUMES      L**3       RATES FOR THIS TIME STEP      L**3/T
     ------------------                 ------------------------

           IN:                                      IN:
           ---                                      ---
             STORAGE =324018798592.0000               STORAGE =    21479878.0000
       CONSTANT HEAD = 30624247808.0000         CONSTANT HEAD =     2366177.2500
               WELLS = 22383413248.0000                 WELLS =     1225642.0000
                  ET =           0.0000                    ET =           0.0000
            RECHARGE =364421414912.0000              RECHARGE =    16368261.0000

            TOTAL IN =741447892992.0000              TOTAL IN =    41439960.0000

          OUT:                                     OUT:
          ----                                     ----
             STORAGE = 62776094720.0000               STORAGE =     1631872.1250
       CONSTANT HEAD = 60058386432.0000         CONSTANT HEAD =     2096314.6250
               WELLS =600214536192.0000                 WELLS =    37137676.0000
                  ET = 18398476288.0000                    ET =      574151.3750
            RECHARGE =           0.0000              RECHARGE =           0.0000

           TOTAL OUT =741447434240.0000             TOTAL OUT =    41440016.0000

            IN - OUT =      458752.0000              IN - OUT =         -56.0000

 PERCENT DISCREPANCY =           0.00     PERCENT DISCREPANCY =          -0.00






         TIME SUMMARY AT END OF TIME STEP   12 IN STRESS PERIOD   50
                    SECONDS     MINUTES      HOURS       DAYS        YEARS
                    -----------------------------------------------------------
   TIME STEP LENGTH 2.62800E+06  43800.      730.00      30.417     8.32763E-02
 STRESS PERIOD TIME 3.15360E+07 5.25600E+05  8760.0      365.00     0.99932    
         TOTAL TIME 1.57793E+09 2.62988E+07 4.38313E+05  18263.      50.001    
1
1
                            STRESS PERIOD NO.   51, LENGTH =   365.0000    
                            -----------------------------------------------

                              NUMBER OF TIME STEPS =    12

                               MULTIPLIER FOR DELT =     1.000

                            INITIAL TIME STEP SIZE =   30.41667    

   1813 WELLS

 REUSING SURF FROM LAST STRESS PERIOD

 REUSING EVTR FROM LAST STRESS PERIOD

 REUSING EXDP FROM LAST STRESS PERIOD



                           RECHARGE
 READING ON UNIT   16 WITH FORMAT: (15F5.0)            


     63 TIME-VARIANT SPECIFIED-HEAD CELLS
 
 SOLVING FOR HEAD 
                                                   Max.-Head-Change                         Max.-Flux-Residual
  Residual-Control   Outer-Iter.   Inner-Iter.     Column Row Layer    Maximum-Head-Change  Column Row Layer    Maximum-Flux-Residual          L2-NORM 
          0                 1          11            83   52     3       0.6508490400E+02      37   29    2         0.1975833046E+06      0.9550473486E+06
          0                 2          10            92   77     2       0.7924403461E+01      37   29    1        -0.4288307939E+05      0.1081775156E+06
          0                 3           8            55   99     3      -0.1297299807E+01      55   99    3        -0.3352143738E+05      0.4051203711E+05
          0                 4           6            55   99     3       0.1282122711E+01      55   99    3         0.3635634025E+05      0.3641393909E+05
          0                 5           5            55   99     3      -0.1047272365E+01      55   99    3        -0.3257083933E+05      0.3257137151E+05
          0                 6           4            55   99     3       0.7590378659E+00      55   99    3         0.2584083114E+05      0.2584084480E+05
          0                 7           3            55   99     3      -0.4015151353E+00      55   99    3        -0.1495207890E+05      0.1495208524E+05
          0                 8           2            55   99     3       0.1916810101E+00      55   99    3         0.7791702689E+04      0.7791704768E+04
          0                 9           2            55   99     3      -0.6255890008E-01      55   99    3        -0.2773111734E+04      0.2773113115E+04
          0                10           2            55   99     3       0.1529146902E-01      55   99    3         0.7373572903E+03      0.7373574792E+03
          0                11           1            55   99     3      -0.2195611277E-02      55   99    3        -0.1151629398E+03      0.1151632874E+03

    ------------------------------------------------
       NWT REQUIRED           11 OUTER ITERATIONS 
       AND A TOTAL OF         54 INNER ITERATIONS.
    ------------------------------------------------

 NO OUTPUT CONTROL FOR STRESS PERIOD   51   TIME STEP    1
 
 SOLVING FOR HEAD 
                                                   Max.-Head-Change                         Max.-Flux-Residual
  Residual-Control   Outer-Iter.   Inner-Iter.     Column Row Layer    Maximum-Head-Change  Column Row Layer    Maximum-Flux-Residual          L2-NORM 
          0                 1          10            83   52     3       0.1498862907E+02      55  100    3        -0.1234321296E+06      0.6201490508E+06
          0                 2           9            83   52     3      -0.1362815626E+01      37   29    2         0.2386518810E+05      0.6710081789E+05
          0                 3           6            55   99     3      -0.5321388513E+00      55   99    3        -0.1372576587E+05      0.1394089607E+05
          0                 4           3            55   99     3       0.5198812504E+00      55   99    3         0.1471589525E+05      0.1471590095E+05
          0                 5           3            55   99     3      -0.4194414839E+00      55   99    3        -0.1302123726E+05      0.1302124224E+05
          0                 6           3            55   99     3       0.2858158405E+00      55   99    3         0.9713513563E+04      0.9713517163E+04
          0                 7           2            55   99     3      -0.1473696374E+00      55   99    3        -0.5477913805E+04      0.5477916030E+04
          0                 8           2            55   99     3       0.6220806769E-01      55   99    3         0.2524409326E+04      0.2524410183E+04
          0                 9           2            55   99     3      -0.1833139123E-01      55   99    3        -0.8111049203E+03      0.8111052890E+03
          0                10           1            55   99     3       0.3706109978E-02      55   99    3         0.1784130577E+03      0.1784131095E+03

    ------------------------------------------------
       NWT REQUIRED           10 OUTER ITERATIONS 
       AND A TOTAL OF         41 INNER ITERATIONS.
    ------------------------------------------------

 NO OUTPUT CONTROL FOR STRESS PERIOD   51   TIME STEP    2
 
 SOLVING FOR HEAD 
                                                   Max.-Head-Change                         Max.-Flux-Residual
  Residual-Control   Outer-Iter.   Inner-Iter.     Column Row Layer    Maximum-Head-Change  Column Row Layer    Maximum-Flux-Residual          L2-NORM 
          0                 1          10            55  100     3      -0.5317120703E+01      55  100    3        -0.1167466130E+06      0.5191666000E+06
          0                 2           9            55  100     3       0.4730540576E+00      55  100    3         0.1152706634E+05      0.5313055268E+05
          0                 3           5            55   99     3      -0.2293080401E+00      55   99    3        -0.5920631329E+04      0.5925401273E+04
          0                 4           3            55   99     3       0.2185686394E+00      55   99    3         0.6194034361E+04      0.6194047255E+04
          0                 5           2            55   99     3      -0.1716479829E+00      55   99    3        -0.5333988875E+04      0.5333991321E+04
          0                 6           2            55   99     3       0.1113275614E+00      55   99    3         0.3787829841E+04      0.3787831488E+04
          0                 7           2            55   99     3      -0.5570807123E-01      55   99    3        -0.2072858440E+04      0.2072859368E+04
          0                 8           2            55   99     3       0.2180940580E-01      55   99    3         0.8860211450E+03      0.8860215129E+03
          0                 9           2            55   99     3      -0.6009741021E-02      55   99    3        -0.2661856859E+03      0.2661858106E+03

    ------------------------------------------------
       NWT REQUIRED            9 OUTER ITERATIONS 
       AND A TOTAL OF         37 INNER ITERATIONS.
    ------------------------------------------------

 NO OUTPUT CONTROL FOR STRESS PERIOD   51   TIME STEP    3
 
 SOLVING FOR HEAD 
                                                   Max.-Head-Change                         Max.-Flux-Residual
  Residual-Control   Outer-Iter.   Inner-Iter.     Column Row Layer    Maximum-Head-Change  Column Row Layer    Maximum-Flux-Residual          L2-NORM 
          0                 1          10            55  100     3      -0.5073669242E+01      55  100    3        -0.1109992672E+06      0.4671189313E+06
          0                 2           9            55  100     3       0.2057557050E+01      55  100    3         0.4986446682E+05      0.6761574977E+05
          0                 3           5            55  100     3      -0.1424084803E+01      55  100    3        -0.3799048661E+05      0.3811221974E+05
          0                 4           3            55  100     3       0.6276775427E+00      55  100    3         0.1837018322E+05      0.1863455182E+05
          0                 5           3            55  100     3      -0.2967787896E+00      55  100    3        -0.9519010447E+04      0.9878719804E+04
          0                 6           3            55  100     3       0.9000955395E-01      55  100    3         0.3160613630E+04      0.3647386366E+04
          0                 7           2            55   99     3      -0.2612759884E-01      55   99    3        -0.9729250677E+03      0.1251322765E+04
          0                 8           2            55   99     3       0.9794883144E-02      55   99    3         0.3982786710E+03      0.4118890534E+03

    ------------------------------------------------
       NWT REQUIRED            8 OUTER ITERATIONS 
       AND A TOTAL OF         37 INNER ITERATIONS.
    ------------------------------------------------

 NO OUTPUT CONTROL FOR STRESS PERIOD   51   TIME STEP    4
 
 SOLVING FOR HEAD 
                                                   Max.-Head-Change                         Max.-Flux-Residual
  Residual-Control   Outer-Iter.   Inner-Iter.     Column Row Layer    Maximum-Head-Change  Column Row Layer    Maximum-Flux-Residual          L2-NORM 
          0                 1          10            55  100     3      -0.4246902924E+01      55  100    3        -0.9251909260E+05      0.4304015626E+06
          0                 2           9            55  100     3       0.4893509310E+01      55  100    3         0.1183580370E+06      0.1259637568E+06
          0                 3           7            55  100     3      -0.4475463561E+01      55  100    3        -0.1193629487E+06      0.1194410126E+06
          0                 4           4            55  100     3       0.3448504193E+01      55  100    3         0.1007278830E+06      0.1007494696E+06
          0                 5           3            55  100     3      -0.2380070951E+01      55  100    3        -0.7634820129E+05      0.7636801495E+05
          0                 6           3            55  100     3       0.1376741656E+01      55  100    3         0.4829996987E+05      0.4831459027E+05
          0                 7           3            55  100     3      -0.6648891025E+00      55  100    3        -0.2552404934E+05      0.2553184124E+05
          0                 8           3            55  100     3       0.2446201898E+00      55  100    3         0.1025034952E+05      0.1025352608E+05
          0                 9           2            55  100     3      -0.6509320055E-01      55  100    3        -0.2973774645E+04      0.2974659602E+04
          0                10           2            55  100     3       0.1092310529E-01      55  100    3         0.5431309247E+03      0.5432912327E+03
          0                11           2            55  100     3      -0.8753494432E-03      55  100    3        -0.4725913857E+02      0.4729086958E+02

    ------------------------------------------------
       NWT REQUIRED           11 OUTER ITERATIONS 
       AND A TOTAL OF         48 INNER ITERATIONS.
    ------------------------------------------------

 NO OUTPUT CONTROL FOR STRESS PERIOD   51   TIME STEP    5
 
 SOLVING FOR HEAD 
                                                   Max.-Head-Change                         Max.-Flux-Residual
  Residual-Control   Outer-Iter.   Inner-Iter.     Column Row Layer    Maximum-Head-Change  Column Row Layer    Maximum-Flux-Residual          L2-NORM 
          0                 1          10            56   99     3      -0.3169609033E+01      56   99    3        -0.7247227630E+05      0.3991922959E+06
          0                 2           9            55  100     3       0.2377462025E+01      55  100    3         0.5747152693E+05      0.7075567735E+05
          0                 3           5            55  100     3      -0.2438923952E+01      55  100    3        -0.6497964907E+05      0.6500392388E+05
          0                 4           3            55  100     3       0.2064194923E+01      55  100    3         0.6029497031E+05      0.6031192547E+05
          0                 5           3            55  100     3      -0.1398255327E+01      55  100    3        -0.4482820247E+05      0.4484389437E+05
          0                 6           3            55  100     3       0.8255504306E+00      55  100    3         0.2895893020E+05      0.2896990738E+05
          0                 7           3            55  100     3      -0.3630174272E+00      55  100    3        -0.1393178780E+05      0.1393802327E+05
          0                 8           3            55  100     3       0.1267508826E+00      55  100    3         0.5309756873E+04      0.5312313099E+04
          0                 9           2            55  100     3      -0.2968976533E-01      55  100    3        -0.1356241535E+04      0.1357005406E+04
          0                10           2            55  100     3       0.4246936563E-02      55  100    3         0.2110173844E+03      0.2111623070E+03

    ------------------------------------------------
       NWT REQUIRED           10 OUTER ITERATIONS 
       AND A TOTAL OF         43 INNER ITERATIONS.
    ------------------------------------------------

 NO OUTPUT CONTROL FOR STRESS PERIOD   51   TIME STEP    6
 
 SOLVING FOR HEAD 
                                                   Max.-Head-Change                         Max.-Flux-Residual
  Residual-Control   Outer-Iter.   Inner-Iter.     Column Row Layer    Maximum-Head-Change  Column Row Layer    Maximum-Flux-Residual          L2-NORM 
          0                 1          10            56   99     3      -0.2907619105E+01      56   99    3        -0.6618414969E+05      0.3803017838E+06
          0                 2           9            75   65     1      -0.2094012955E+01      55  100    3         0.2508060144E+05      0.4657629973E+05
          0                 3           5            55  100     3      -0.1034441104E+01      55  100    3        -0.2754917532E+05      0.2757796738E+05
          0                 4           3            55  100     3       0.8537875095E+00      55  100    3         0.2494618991E+05      0.2497158330E+05
          0                 5           3            55  100     3      -0.5610461843E+00      55  100    3        -0.1798132328E+05      0.1800492643E+05
          0                 6           3            55  100     3       0.3067992494E+00      55  100    3         0.1076330218E+05      0.1078055156E+05
          0                 7           3            55  100     3      -0.1235961345E+00      55  100    3        -0.4742533132E+04      0.4752866362E+04
          0                 8           2            55  100     3       0.3756478068E-01      55  100    3         0.1573568707E+04      0.1578216142E+04
          0                 9           2            55  100     3      -0.7372452019E-02      55  100    3        -0.3367290518E+03      0.3382908012E+03

    ------------------------------------------------
       NWT REQUIRED            9 OUTER ITERATIONS 
       AND A TOTAL OF         40 INNER ITERATIONS.
    ------------------------------------------------

 NO OUTPUT CONTROL FOR STRESS PERIOD   51   TIME STEP    7
 
 SOLVING FOR HEAD 
                                                   Max.-Head-Change                         Max.-Flux-Residual
  Residual-Control   Outer-Iter.   Inner-Iter.     Column Row Layer    Maximum-Head-Change  Column Row Layer    Maximum-Flux-Residual          L2-NORM 
          0                 1          10            56   99     3      -0.2677938414E+01      56   99    3        -0.6071229603E+05      0.3665190289E+06
          0                 2           9            55  100     3       0.4883160574E+00      55  100    3         0.1174570686E+05      0.3947275843E+05
          0                 3           5            55  100     3      -0.4669388256E+00      55  100    3        -0.1243372585E+05      0.1247898911E+05
          0                 4           3            55  100     3       0.3697208469E+00      55  100    3         0.1080393040E+05      0.1084696197E+05
          0                 5           3            55  100     3      -0.2333413619E+00      55  100    3        -0.7477417674E+04      0.7518144127E+04
          0                 6           3            55  100     3       0.1189807043E+00      55  100    3         0.4174209255E+04      0.4205286044E+04
          0                 7           2            55  100     3      -0.4486333209E-01      55  100    3        -0.1721208458E+04      0.1740521471E+04
          0                 8           2            55  100     3       0.1225599649E-01      55  100    3         0.5133283712E+03      0.5226267604E+03
          0                 9           2            55  100     3      -0.2096077075E-02      55  100    3        -0.9570442240E+02      0.9910719466E+02

    ------------------------------------------------
       NWT REQUIRED            9 OUTER ITERATIONS 
       AND A TOTAL OF         39 INNER ITERATIONS.
    ------------------------------------------------

 NO OUTPUT CONTROL FOR STRESS PERIOD   51   TIME STEP    8
 
 SOLVING FOR HEAD 
                                                   Max.-Head-Change                         Max.-Flux-Residual
  Residual-Control   Outer-Iter.   Inner-Iter.     Column Row Layer    Maximum-Head-Change  Column Row Layer    Maximum-Flux-Residual          L2-NORM 
          0                 1          10            56   99     3      -0.2475781683E+01      56   99    3        -0.5591909739E+05      0.3557108393E+06
          0                 2           9            79   83     1      -0.5295776081E+00      25   20    2         0.6593268505E+04      0.3704342376E+05
          0                 3           5            55  100     3      -0.2383155875E+00      55  100    3        -0.6345392492E+04      0.6434813541E+04
          0                 4           3            55  100     3       0.1828412863E+00      55  100    3         0.5342973701E+04      0.5413905625E+04
          0                 5           3            55  100     3      -0.1119658509E+00      55  100    3        -0.3587462918E+04      0.3655256551E+04
          0                 6           2            55  100     3       0.5448008820E-01      55  100    3         0.1911115155E+04      0.1963988393E+04
          0                 7           2            55  100     3      -0.1962451664E-01      55  100    3        -0.7527245697E+03      0.7860933177E+03
          0                 8           2            55  100     3       0.4999675306E-02      55  100    3         0.2093340626E+03      0.2258294526E+03

    ------------------------------------------------
       NWT REQUIRED            8 OUTER ITERATIONS 
       AND A TOTAL OF         36 INNER ITERATIONS.
    ------------------------------------------------

 NO OUTPUT CONTROL FOR STRESS PERIOD   51   TIME STEP    9
 
 SOLVING FOR HEAD 
                                                   Max.-Head-Change                         Max.-Flux-Residual
  Residual-Control   Outer-Iter.   Inner-Iter.     Column Row Layer    Maximum-Head-Change  Column Row Layer    Maximum-Flux-Residual          L2-NORM 
          0                 1          10            56   99     3      -0.2296795457E+01      56   99    3        -0.5169638444E+05      0.3470105412E+06
          0                 2           9            56   99     3       0.2064677425E+00      25   18    1        -0.9263162951E+04      0.3610964511E+05
          0                 3           5            55  100     3      -0.1397883150E+00      55  100    3        -0.3721633671E+04      0.3819411318E+04
          0                 4           3            55  100     3       0.1049393061E+00      55  100    3         0.3066231455E+04      0.3177795636E+04
          0                 5           2            55  100     3      -0.6290443467E-01      55  100    3        -0.2015107689E+04      0.2121660663E+04
          0                 6           2            55  100     3       0.2968399944E-01      55  100    3         0.1041034276E+04      0.1124361276E+04
          0                 7           2            55  100     3      -0.1035930858E-01      55  100    3        -0.3971888112E+03      0.4494362795E+03
          0                 8           2            55  100     3       0.2520040246E-02      55  100    3         0.1054495268E+03      0.1309074208E+03

    ------------------------------------------------
       NWT REQUIRED            8 OUTER ITERATIONS 
       AND A TOTAL OF         35 INNER ITERATIONS.
    ------------------------------------------------

 NO OUTPUT CONTROL FOR STRESS PERIOD   51   TIME STEP   10
 
 SOLVING FOR HEAD 
                                                   Max.-Head-Change                         Max.-Flux-Residual
  Residual-Control   Outer-Iter.   Inner-Iter.     Column Row Layer    Maximum-Head-Change  Column Row Layer    Maximum-Flux-Residual          L2-NORM 
          0                 1          10            56   99     3      -0.2137370849E+01      56   99    3        -0.4795675433E+05      0.3396989151E+06
          0                 2           9            56   99     3       0.1921602123E+00      25   19    1        -0.9002960749E+04      0.3583875207E+05
          0                 3           5            55  100     3      -0.9301509821E-01      55  100    3        -0.2476101478E+04      0.2621329470E+04
          0                 4           2            55  100     3       0.6872165590E-01      55  100    3         0.2007702207E+04      0.2159343188E+04
          0                 5           2            55  100     3      -0.4053193473E-01      55  100    3        -0.1298122657E+04      0.1441715238E+04
          0                 6           2            55  100     3       0.1871299753E-01      55  100    3         0.6560722497E+03      0.7671564566E+03
          0                 7           2            55  100     3      -0.6377241211E-02      55  100    3        -0.2443956760E+03      0.3125200406E+03

    ------------------------------------------------
       NWT REQUIRED            7 OUTER ITERATIONS 
       AND A TOTAL OF         32 INNER ITERATIONS.
    ------------------------------------------------

 NO OUTPUT CONTROL FOR STRESS PERIOD   51   TIME STEP   11
 
 SOLVING FOR HEAD 
                                                   Max.-Head-Change                         Max.-Flux-Residual
  Residual-Control   Outer-Iter.   Inner-Iter.     Column Row Layer    Maximum-Head-Change  Column Row Layer    Maximum-Flux-Residual          L2-NORM 
          0                 1          10            56   99     3      -0.1994748099E+01      56   99    3        -0.4462729872E+05      0.3334750149E+06
          0                 2           9            78   53     1      -0.5200285557E+01      78   53    1        -0.6185231235E+04      0.3468868837E+05
          0                 3           5            78   53     1       0.3043617886E+00      55  100    3        -0.1795565362E+04      0.2054586352E+04
          0                 4           3            55  100     3       0.4919029646E-01      55  100    3         0.1437025313E+04      0.1590721358E+04
          0                 5           2            55  100     3      -0.2861851560E-01      55  100    3        -0.9164744519E+03      0.1060543683E+04
          0                 6           2            55  100     3       0.1298102087E-01      55  100    3         0.4550363172E+03      0.5650429763E+03
          0                 7           2            55   99     3      -0.4348639929E-02      55  100    3        -0.1661266864E+03      0.2322429566E+03

    ------------------------------------------------
       NWT REQUIRED            7 OUTER ITERATIONS 
       AND A TOTAL OF         33 INNER ITERATIONS.
    ------------------------------------------------

 OUTPUT CONTROL FOR STRESS PERIOD   51   TIME STEP   12
    SAVE BUDGET
    SAVE HEAD FOR LAYERS:   1  2  3
 UBDSV1 SAVING "         STORAGE" ON UNIT  39 AT TIME STEP 12, STRESS PERIOD  51
 UBDSV2 SAVING "   CONSTANT HEAD" ON UNIT  39 AT TIME STEP 12, STRESS PERIOD  51
 UBDSV1 SAVING "FLOW RIGHT FACE " ON UNIT  39 AT TIME STEP 12, STRESS PERIOD  51
 UBDSV1 SAVING "FLOW FRONT FACE " ON UNIT  39 AT TIME STEP 12, STRESS PERIOD  51
 UBDSV1 SAVING "FLOW LOWER FACE " ON UNIT  39 AT TIME STEP 12, STRESS PERIOD  51
 UBDSV4 SAVING "           WELLS" ON UNIT  39 AT TIME STEP 12, STRESS PERIOD  51
 UBDSV3 SAVING "              ET" ON UNIT  39 AT TIME STEP 12, STRESS PERIOD  51
 UBDSV3 SAVING "        RECHARGE" ON UNIT  39 AT TIME STEP 12, STRESS PERIOD  51

 HEAD WILL BE SAVED ON UNIT   31 AT END OF TIME STEP   12, STRESS PERIOD   51
1
  VOLUMETRIC BUDGET FOR ENTIRE MODEL AT END OF TIME STEP   12, STRESS PERIOD  51
  ------------------------------------------------------------------------------

     CUMULATIVE VOLUMES      L**3       RATES FOR THIS TIME STEP      L**3/T
     ------------------                 ------------------------

           IN:                                      IN:
           ---                                      ---
             STORAGE =329372336128.0000               STORAGE =    13630524.0000
       CONSTANT HEAD = 31492734976.0000         CONSTANT HEAD =     2405621.2500
               WELLS = 22830770176.0000                 WELLS =     1225642.0000
                  ET =           0.0000                    ET =           0.0000
            RECHARGE =372482342912.0000              RECHARGE =    22085266.0000

            TOTAL IN =756178223104.0000              TOTAL IN =    39347056.0000

          OUT:                                     OUT:
          ----                                     ----
             STORAGE = 64721842176.0000               STORAGE =     4207266.0000
       CONSTANT HEAD = 60943663104.0000         CONSTANT HEAD =     2534216.7500
               WELLS =611866902528.0000                 WELLS =    31879510.0000
                  ET = 18645594112.0000                    ET =      725962.8750
            RECHARGE =           0.0000              RECHARGE =           0.0000

           TOTAL OUT =756178026496.0000             TOTAL OUT =    39346952.0000

            IN - OUT =      196608.0000              IN - OUT =         104.0000

 PERCENT DISCREPANCY =           0.00     PERCENT DISCREPANCY =           0.00






         TIME SUMMARY AT END OF TIME STEP   12 IN STRESS PERIOD   51
                    SECONDS     MINUTES      HOURS       DAYS        YEARS
                    -----------------------------------------------------------
   TIME STEP LENGTH 2.62800E+06  43800.      730.00      30.417     8.32763E-02
 STRESS PERIOD TIME 3.15360E+07 5.25600E+05  8760.0      365.00     0.99932    
         TOTAL TIME 1.60946E+09 2.68243E+07 4.47072E+05  18628.      51.001    
1
1
                            STRESS PERIOD NO.   52, LENGTH =   365.0000    
                            -----------------------------------------------

                              NUMBER OF TIME STEPS =    12

                               MULTIPLIER FOR DELT =     1.000

                            INITIAL TIME STEP SIZE =   30.41667    

   1805 WELLS

 REUSING SURF FROM LAST STRESS PERIOD

 REUSING EVTR FROM LAST STRESS PERIOD

 REUSING EXDP FROM LAST STRESS PERIOD



                           RECHARGE
 READING ON UNIT   16 WITH FORMAT: (15F5.0)            


     63 TIME-VARIANT SPECIFIED-HEAD CELLS
 
 SOLVING FOR HEAD 
                                                   Max.-Head-Change                         Max.-Flux-Residual
  Residual-Control   Outer-Iter.   Inner-Iter.     Column Row Layer    Maximum-Head-Change  Column Row Layer    Maximum-Flux-Residual          L2-NORM 
          0                 1          11            84   50     3       0.7430933962E+02      55  108    3        -0.1434093748E+06      0.8967304889E+06
          0                 2          10            92   77     2       0.1358301233E+02      29   31    2         0.2128709498E+05      0.9491783931E+05
          0                 3           6            92   77     2       0.6899383845E+00      55  100    3        -0.1244214943E+05      0.1332922502E+05
          0                 4           3            55  100     3       0.4136147372E+00      55  100    3         0.1210041011E+05      0.1243862289E+05
          0                 5           3            55  100     3      -0.2970908048E+00      55  100    3        -0.9529654851E+04      0.9658391678E+04
          0                 6           3            55  100     3       0.1768399197E+00      55  100    3         0.6209489353E+04      0.6241256568E+04
          0                 7           3            55  100     3      -0.7917516867E-01      55  100    3        -0.3040217195E+04      0.3045447157E+04
          0                 8           2            55  100     3       0.2733077702E-01      55  100    3         0.1145697277E+04      0.1146104358E+04
          0                 9           2            55  100     3      -0.6370810638E-02      55  100    3        -0.2911685001E+03      0.2911767874E+03

    ------------------------------------------------
       NWT REQUIRED            9 OUTER ITERATIONS 
       AND A TOTAL OF         43 INNER ITERATIONS.
    ------------------------------------------------

 NO OUTPUT CONTROL FOR STRESS PERIOD   52   TIME STEP    1
 
 SOLVING FOR HEAD 
                                                   Max.-Head-Change                         Max.-Flux-Residual
  Residual-Control   Outer-Iter.   Inner-Iter.     Column Row Layer    Maximum-Head-Change  Column Row Layer    Maximum-Flux-Residual          L2-NORM 
          0                 1          10            84   50     3       0.1189234497E+02      81   46    1         0.1098266009E+06      0.6680195711E+06
          0                 2           9            19   38     2      -0.1164821014E+02      19   38    2        -0.2049657848E+05      0.7377074389E+05
          0                 3           7            19   38     2       0.9288790278E+00      55  100    3        -0.5821190535E+04      0.6729854901E+04
          0                 4           5            55  100     3       0.1877805126E+00      55  100    3         0.5495219122E+04      0.5698836913E+04
          0                 5           4            55  100     3      -0.1310681618E+00      55  100    3        -0.4205055526E+04      0.4290173596E+04
          0                 6           3            55  100     3       0.7430594220E-01      55  100    3         0.2609894785E+04      0.2634339729E+04
          0                 7           2            55  100     3      -0.3198936576E-01      55  100    3        -0.1228589796E+04      0.1233283902E+04
          0                 8           2            55  100     3       0.1030155013E-01      55  100    3         0.4319382381E+03      0.4324083834E+03
          0                 9           2            55  100     3      -0.2219342770E-02      55  100    3        -0.1014468651E+03      0.1014620431E+03

    ------------------------------------------------
       NWT REQUIRED            9 OUTER ITERATIONS 
       AND A TOTAL OF         44 INNER ITERATIONS.
    ------------------------------------------------

 NO OUTPUT CONTROL FOR STRESS PERIOD   52   TIME STEP    2
 
 SOLVING FOR HEAD 
                                                   Max.-Head-Change                         Max.-Flux-Residual
  Residual-Control   Outer-Iter.   Inner-Iter.     Column Row Layer    Maximum-Head-Change  Column Row Layer    Maximum-Flux-Residual          L2-NORM 
          0                 1          10            19   38     2      -0.1334707282E+02      81   46    1         0.1065088671E+06      0.5905239545E+06
          0                 2           9            19   38     2       0.3776931457E+01      19   38    2         0.1224122056E+05      0.6172026873E+05
          0                 3           6            55  100     3      -0.1198148940E+00      55  100    3        -0.3195012234E+04      0.3387268405E+04
          0                 4           4            55  100     3       0.1010366448E+00      55  100    3         0.2956906081E+04      0.3025961317E+04
          0                 5           3            55  100     3      -0.6916020644E-01      55  100    3        -0.2219012160E+04      0.2249011267E+04
          0                 6           2            55  100     3       0.3806762859E-01      55  100    3         0.1337259147E+04      0.1346470976E+04
          0                 7           2            55  100     3      -0.1595712952E-01      55  100    3        -0.6129359390E+03      0.6148251763E+03
          0                 8           2            55  100     3       0.4928111077E-02      55  100    3         0.2066692364E+03      0.2068796553E+03

    ------------------------------------------------
       NWT REQUIRED            8 OUTER ITERATIONS 
       AND A TOTAL OF         38 INNER ITERATIONS.
    ------------------------------------------------

 NO OUTPUT CONTROL FOR STRESS PERIOD   52   TIME STEP    3
 
 SOLVING FOR HEAD 
                                                   Max.-Head-Change                         Max.-Flux-Residual
  Residual-Control   Outer-Iter.   Inner-Iter.     Column Row Layer    Maximum-Head-Change  Column Row Layer    Maximum-Flux-Residual          L2-NORM 
          0                 1          10            81   45     1       0.3394151505E+01      81   46    1         0.1032744697E+06      0.5436097497E+06
          0                 2           9            77   46     2       0.1050298867E+01      90   67    1        -0.2788584725E+05      0.6154306843E+05
          0                 3           5            77   46     2      -0.9549075961E-01      55  100    3        -0.2109834878E+04      0.2256500103E+04
          0                 4           2            55  100     3       0.6582539618E-01      55  100    3         0.1926187883E+04      0.1933490133E+04
          0                 5           2            55  100     3      -0.4442908444E-01      55  100    3        -0.1425424132E+04      0.1428629488E+04
          0                 6           2            55  100     3       0.2398628977E-01      55  100    3         0.8426178343E+03      0.8436245426E+03
          0                 7           2            55  100     3      -0.9861052199E-02      55  100    3        -0.3788000558E+03      0.3790102467E+03

    ------------------------------------------------
       NWT REQUIRED            7 OUTER ITERATIONS 
       AND A TOTAL OF         32 INNER ITERATIONS.
    ------------------------------------------------

 NO OUTPUT CONTROL FOR STRESS PERIOD   52   TIME STEP    4
 
 SOLVING FOR HEAD 
                                                   Max.-Head-Change                         Max.-Flux-Residual
  Residual-Control   Outer-Iter.   Inner-Iter.     Column Row Layer    Maximum-Head-Change  Column Row Layer    Maximum-Flux-Residual          L2-NORM 
          0                 1          10            81   45     1       0.3258064919E+01      81   46    1         0.1000984604E+06      0.5116911636E+06
          0                 2           9            81   45     1      -0.2966869009E+00      81   46    1        -0.1003082719E+05      0.5177204736E+05
          0                 3           5            55  100     3      -0.5519188051E-01      55  100    3        -0.1471085873E+04      0.1496151159E+04
          0                 4           2            55  100     3       0.4537570647E-01      55  100    3         0.1327576321E+04      0.1329720076E+04
          0                 5           2            55  100     3      -0.3025386431E-01      55  100    3        -0.9705493152E+03      0.9715100129E+03
          0                 6           2            55  100     3       0.1607252402E-01      55  100    3         0.5646044701E+03      0.5649168010E+03
          0                 7           2            55  100     3      -0.6495844649E-02      55  100    3        -0.2495385802E+03      0.2496070451E+03

    ------------------------------------------------
       NWT REQUIRED            7 OUTER ITERATIONS 
       AND A TOTAL OF         32 INNER ITERATIONS.
    ------------------------------------------------

 NO OUTPUT CONTROL FOR STRESS PERIOD   52   TIME STEP    5
 
 SOLVING FOR HEAD 
                                                   Max.-Head-Change                         Max.-Flux-Residual
  Residual-Control   Outer-Iter.   Inner-Iter.     Column Row Layer    Maximum-Head-Change  Column Row Layer    Maximum-Flux-Residual          L2-NORM 
          0                 1          10            81   45     1       0.3129621372E+01      81   46    1         0.9691561566E+05      0.4876684020E+06
          0                 2           9            81   45     1      -0.2849673355E+00      76   48    1        -0.1028913283E+05      0.5057677088E+05
          0                 3           6            55  100     3      -0.4478437965E-01      55  100    3        -0.1193468459E+04      0.1341196144E+04
          0                 4           2            55  100     3       0.3646615217E-01      55  100    3         0.1066782032E+04      0.1083891322E+04
          0                 5           2            55  100     3      -0.2405957668E-01      55  100    3        -0.7717903286E+03      0.7794321527E+03
          0                 6           2            55  100     3       0.1261674422E-01      55  100    3         0.4432079654E+03      0.4456799412E+03
          0                 7           2            55  100     3      -0.5024981437E-02      55  100    3        -0.1930442544E+03      0.1935775714E+03

    ------------------------------------------------
       NWT REQUIRED            7 OUTER ITERATIONS 
       AND A TOTAL OF         33 INNER ITERATIONS.
    ------------------------------------------------

 NO OUTPUT CONTROL FOR STRESS PERIOD   52   TIME STEP    6
 
 SOLVING FOR HEAD 
                                                   Max.-Head-Change                         Max.-Flux-Residual
  Residual-Control   Outer-Iter.   Inner-Iter.     Column Row Layer    Maximum-Head-Change  Column Row Layer    Maximum-Flux-Residual          L2-NORM 
          0                 1          10            81   45     1       0.3006574769E+01      81   46    1         0.9380428060E+05      0.4679725486E+06
          0                 2           9            52   47     2      -0.3236063432E+00      58   31    2         0.1029505565E+05      0.4872632664E+05
          0                 3           5            55  100     3      -0.3955137237E-01      59   77    1        -0.1193378950E+04      0.1689513233E+04
          0                 4           3            55  100     3       0.3192335026E-01      55  100    3         0.9338640726E+03      0.9710589386E+03
          0                 5           2            55  100     3      -0.2085788740E-01      55  100    3        -0.6690939749E+03      0.6831065473E+03
          0                 6           2            55  100     3       0.1081063933E-01      55  100    3         0.3797809840E+03      0.3842863442E+03
          0                 7           2            55  100     3      -0.4247477042E-02      55  100    3        -0.1631881165E+03      0.1641542678E+03

    ------------------------------------------------
       NWT REQUIRED            7 OUTER ITERATIONS 
       AND A TOTAL OF         33 INNER ITERATIONS.
    ------------------------------------------------

 NO OUTPUT CONTROL FOR STRESS PERIOD   52   TIME STEP    7
 
 SOLVING FOR HEAD 
                                                   Max.-Head-Change                         Max.-Flux-Residual
  Residual-Control   Outer-Iter.   Inner-Iter.     Column Row Layer    Maximum-Head-Change  Column Row Layer    Maximum-Flux-Residual          L2-NORM 
          0                 1          10            81   45     1       0.2888382061E+01      81   46    1         0.9076376461E+05      0.4508331095E+06
          0                 2           9            81   45     1      -0.2629609443E+00      81   46    1        -0.9093614912E+04      0.4577864010E+05
          0                 3           5            55  100     3      -0.3640187038E-01      55  100    3        -0.9700406777E+03      0.1092540648E+04
          0                 4           2            55  100     3       0.2913615872E-01      55  100    3         0.8523688661E+03      0.8920423829E+03
          0                 5           2            55  100     3      -0.1885916018E-01      55  100    3        -0.6050179552E+03      0.6226991930E+03
          0                 6           2            55  100     3       0.9667028798E-02      55  100    3         0.3396356782E+03      0.3453278152E+03

    ------------------------------------------------
       NWT REQUIRED            6 OUTER ITERATIONS 
       AND A TOTAL OF         30 INNER ITERATIONS.
    ------------------------------------------------

 NO OUTPUT CONTROL FOR STRESS PERIOD   52   TIME STEP    8
 
 SOLVING FOR HEAD 
                                                   Max.-Head-Change                         Max.-Flux-Residual
  Residual-Control   Outer-Iter.   Inner-Iter.     Column Row Layer    Maximum-Head-Change  Column Row Layer    Maximum-Flux-Residual          L2-NORM 
          0                 1          10            81   45     1       0.2775374755E+01      81   46    1         0.8779004393E+05      0.4363190064E+06
          0                 2           9            79   58     2       0.2983887617E+00      79   58    2         0.1123332162E+05      0.4555788029E+05
          0                 3           6            55  100     3      -0.3927537800E-01      42   31    1        -0.1501573890E+04      0.1871284019E+04
          0                 4           4            55  100     3       0.3121129183E-01      55  100    3         0.9132302362E+03      0.9630587301E+03
          0                 5           4            55  100     3      -0.2003423489E-01      55  100    3        -0.6428210999E+03      0.6607917375E+03
          0                 6           3            55  100     3       0.1017446286E-01      55  100    3         0.3575205716E+03      0.3632328039E+03
          0                 7           2            55  100     3      -0.3900312045E-02      55  100    3        -0.1498895710E+03      0.1510973020E+03

    ------------------------------------------------
       NWT REQUIRED            7 OUTER ITERATIONS 
       AND A TOTAL OF         38 INNER ITERATIONS.
    ------------------------------------------------

 NO OUTPUT CONTROL FOR STRESS PERIOD   52   TIME STEP    9
 
 SOLVING FOR HEAD 
                                                   Max.-Head-Change                         Max.-Flux-Residual
  Residual-Control   Outer-Iter.   Inner-Iter.     Column Row Layer    Maximum-Head-Change  Column Row Layer    Maximum-Flux-Residual          L2-NORM 
          0                 1          10            81   45     1       0.2667214630E+01      81   46    1         0.8489315703E+05      0.4236760269E+06
          0                 2           9            81   45     1      -0.2427910660E+00      81   46    1        -0.8504361973E+04      0.4313737308E+05
          0                 3           6            55  100     3      -0.3445341445E-01      49   41    1        -0.1122633338E+04      0.1971689262E+04
          0                 4           4            55  100     3       0.2714847663E-01      71   11    3        -0.9167814470E+03      0.1247215816E+04
          0                 5           3            55  100     3      -0.1726392663E-01      71   11    3        -0.9163102277E+03      0.1080909939E+04
          0                 6           2            55  100     3       0.8669201648E-02      71   11    3        -0.9158381883E+03      0.9671373408E+03
          0                 7           2            55  100     3      -0.3279787237E-02      71   11    3        -0.9153636069E+03      0.9241787462E+03
          0                 8           2            55  100     3       0.8820431206E-03      71   11    3        -0.9148864418E+03      0.9156411507E+03
          0                 9           2            55  100     3      -0.1491446502E-03      71   11    3        -0.9144066352E+03      0.9144321923E+03
          0                10           2            71   11     3      -0.2243593902E-04      71   11    3        -0.9139241847E+03      0.9139244194E+03
                                                   Max.-Head-Change                         Max.-Flux-Residual
  Residual-Control   Outer-Iter.   Inner-Iter.     Column Row Layer    Maximum-Head-Change  Column Row Layer    Maximum-Flux-Residual          L2-NORM 
          0                11           2            71   11     3      -0.2242396671E-04      71   11    3        -0.9134390953E+03      0.9134391396E+03
          0                12           2            71   11     3      -0.2241192886E-04      71   11    3        -0.9129513730E+03      0.9129514172E+03
          0                13           2            71   11     3      -0.2239982699E-04      71   11    3        -0.9124610237E+03      0.9124610680E+03
          0                14           2            71   11     3      -0.2238766009E-04      71   11    3        -0.9119680537E+03      0.9119680979E+03
          0                15           2            71   11     3      -0.2237543116E-04      71   11    3        -0.9114724689E+03      0.9114725131E+03
          0                16           2            71   11     3      -0.2236313620E-04      71   11    3        -0.9109742755E+03      0.9109743197E+03
          0                17           2            71   11     3      -0.2235077871E-04      71   11    3        -0.9104734797E+03      0.9104735239E+03
          0                18           2            71   11     3      -0.2233835720E-04      71   11    3        -0.9099700876E+03      0.9099701318E+03
          0                19           2            71   11     3      -0.2232587115E-04      71   11    3        -0.9094641055E+03      0.9094641496E+03
          0                20           2            71   11     3      -0.2231332308E-04      71   11    3        -0.9089555395E+03      0.9089555836E+03
                                                   Max.-Head-Change                         Max.-Flux-Residual
  Residual-Control   Outer-Iter.   Inner-Iter.     Column Row Layer    Maximum-Head-Change  Column Row Layer    Maximum-Flux-Residual          L2-NORM 
          0                21           2            71   11     3      -0.2230071148E-04      71   11    3        -0.9084443960E+03      0.9084444401E+03
          0                22           2            71   11     3      -0.2228803686E-04      71   11    3        -0.9079306813E+03      0.9079307253E+03
          0                23           2            71   11     3      -0.2227529920E-04      71   11    3        -0.9074144016E+03      0.9074144456E+03
          0                24           2            71   11     3      -0.2226249852E-04      71   11    3        -0.9068955632E+03      0.9068956073E+03
          0                25           2            71   11     3      -0.2224963631E-04      71   11    3        -0.9063741727E+03      0.9063742167E+03
          0                26           2            71   11     3      -0.2223671057E-04      71   11    3        -0.9058502363E+03      0.9058502803E+03
          0                27           5            71   11     3      -0.4203520908E-01      71   11    3        -0.9053239717E+03      0.9053240156E+03
          0                28           4            71   11     3       0.3821058686E-02      71   11    3         0.1042381198E+03      0.1089767771E+03

    ------------------------------------------------
       NWT REQUIRED           28 OUTER ITERATIONS 
       AND A TOTAL OF         83 INNER ITERATIONS.
    ------------------------------------------------

 NO OUTPUT CONTROL FOR STRESS PERIOD   52   TIME STEP   10
 
 SOLVING FOR HEAD 
                                                   Max.-Head-Change                         Max.-Flux-Residual
  Residual-Control   Outer-Iter.   Inner-Iter.     Column Row Layer    Maximum-Head-Change  Column Row Layer    Maximum-Flux-Residual          L2-NORM 
          0                 1          10            81   45     1       0.2563718534E+01      81   46    1         0.8207401018E+05      0.4128277208E+06
          0                 2           9            65    4     2      -0.2136195896E+01      81   46    1        -0.8221440603E+04      0.4229898287E+05
          0                 3           5            39   33     3      -0.7412058629E-01      55  100    3        -0.8687908029E+03      0.1207672880E+04
          0                 4           2            55  100     3       0.2548188450E-01      55  100    3         0.7457197856E+03      0.7894703613E+03
          0                 5           2            55  100     3      -0.1606245737E-01      55  100    3        -0.5154808266E+03      0.5347241071E+03
          0                 6           2            55  100     3       0.7983098421E-02      55  100    3         0.2805779749E+03      0.2866641664E+03

    ------------------------------------------------
       NWT REQUIRED            6 OUTER ITERATIONS 
       AND A TOTAL OF         30 INNER ITERATIONS.
    ------------------------------------------------

 NO OUTPUT CONTROL FOR STRESS PERIOD   52   TIME STEP   11
 
 SOLVING FOR HEAD 
                                                   Max.-Head-Change                         Max.-Flux-Residual
  Residual-Control   Outer-Iter.   Inner-Iter.     Column Row Layer    Maximum-Head-Change  Column Row Layer    Maximum-Flux-Residual          L2-NORM 
          0                 1          10            65    4     2      -0.3061318867E+01      81   46    1         0.7933310939E+05      0.4033193018E+06
          0                 2           9            81   45     1      -0.2243626507E+00      81   46    1        -0.7946401272E+04      0.4141145355E+05
          0                 3           5            55  100     3      -0.3390388764E-01      55  100    3        -0.9039264299E+03      0.9757044135E+03
          0                 4           2            55  100     3       0.2632229432E-01      55  100    3         0.7704434462E+03      0.8116892027E+03
          0                 5           2            55  100     3      -0.1645826246E-01      55  100    3        -0.5282674536E+03      0.5462974500E+03
          0                 6           2            55  100     3       0.8104976383E-02      55  100    3         0.2849048369E+03      0.2905633205E+03

    ------------------------------------------------
       NWT REQUIRED            6 OUTER ITERATIONS 
       AND A TOTAL OF         30 INNER ITERATIONS.
    ------------------------------------------------

 OUTPUT CONTROL FOR STRESS PERIOD   52   TIME STEP   12
    SAVE BUDGET
 UBDSV1 SAVING "         STORAGE" ON UNIT  39 AT TIME STEP 12, STRESS PERIOD  52
 UBDSV2 SAVING "   CONSTANT HEAD" ON UNIT  39 AT TIME STEP 12, STRESS PERIOD  52
 UBDSV1 SAVING "FLOW RIGHT FACE " ON UNIT  39 AT TIME STEP 12, STRESS PERIOD  52
 UBDSV1 SAVING "FLOW FRONT FACE " ON UNIT  39 AT TIME STEP 12, STRESS PERIOD  52
 UBDSV1 SAVING "FLOW LOWER FACE " ON UNIT  39 AT TIME STEP 12, STRESS PERIOD  52
 UBDSV4 SAVING "           WELLS" ON UNIT  39 AT TIME STEP 12, STRESS PERIOD  52
 UBDSV3 SAVING "              ET" ON UNIT  39 AT TIME STEP 12, STRESS PERIOD  52
 UBDSV3 SAVING "        RECHARGE" ON UNIT  39 AT TIME STEP 12, STRESS PERIOD  52
1
  VOLUMETRIC BUDGET FOR ENTIRE MODEL AT END OF TIME STEP   12, STRESS PERIOD  52
  ------------------------------------------------------------------------------

     CUMULATIVE VOLUMES      L**3       RATES FOR THIS TIME STEP      L**3/T
     ------------------                 ------------------------

           IN:                                      IN:
           ---                                      ---
             STORAGE =335117975552.0000               STORAGE =    14681059.0000
       CONSTANT HEAD = 32420085760.0000         CONSTANT HEAD =     2606674.5000
               WELLS = 23278127104.0000                 WELLS =     1225642.0000
                  ET =           0.0000                    ET =           0.0000
            RECHARGE =380853518336.0000              RECHARGE =    22934732.0000

            TOTAL IN =771669753856.0000              TOTAL IN =    41448108.0000

          OUT:                                     OUT:
          ----                                     ----
             STORAGE = 66574872576.0000               STORAGE =     4061970.7500
       CONSTANT HEAD = 61714923520.0000         CONSTANT HEAD =     1963399.8750
               WELLS =624376807424.0000                 WELLS =    34270708.0000
                  ET = 19002906624.0000                    ET =     1152162.2500
            RECHARGE =           0.0000              RECHARGE =           0.0000

           TOTAL OUT =771669491712.0000             TOTAL OUT =    41448244.0000

            IN - OUT =      262144.0000              IN - OUT =        -136.0000

 PERCENT DISCREPANCY =           0.00     PERCENT DISCREPANCY =          -0.00






         TIME SUMMARY AT END OF TIME STEP   12 IN STRESS PERIOD   52
                    SECONDS     MINUTES      HOURS       DAYS        YEARS
                    -----------------------------------------------------------
   TIME STEP LENGTH 2.62800E+06  43800.      730.00      30.417     8.32763E-02
 STRESS PERIOD TIME 3.15360E+07 5.25600E+05  8760.0      365.00     0.99932    
         TOTAL TIME 1.64100E+09 2.73499E+07 4.55832E+05  18993.      52.000    
1
1
                            STRESS PERIOD NO.   53, LENGTH =   366.0000    
                            -----------------------------------------------

                              NUMBER OF TIME STEPS =    12

                               MULTIPLIER FOR DELT =     1.000

                            INITIAL TIME STEP SIZE =   30.50000    

   1828 WELLS

 REUSING SURF FROM LAST STRESS PERIOD

 REUSING EVTR FROM LAST STRESS PERIOD

 REUSING EXDP FROM LAST STRESS PERIOD



                           RECHARGE
 READING ON UNIT   16 WITH FORMAT: (15F5.0)            


     63 TIME-VARIANT SPECIFIED-HEAD CELLS
 
 SOLVING FOR HEAD 
                                                   Max.-Head-Change                         Max.-Flux-Residual
  Residual-Control   Outer-Iter.   Inner-Iter.     Column Row Layer    Maximum-Head-Change  Column Row Layer    Maximum-Flux-Residual          L2-NORM 
          0                 1          11            87   54     3       0.2693807817E+02      61   85    3        -0.1497059572E+06      0.8214301049E+06
          0                 2          10            22   44     2      -0.2697875018E+01      22   44    2        -0.5433944931E+05      0.1218324269E+06
          0                 3           7            22   43     2       0.1197869426E+00      56   81    2        -0.3716595082E+04      0.5027145229E+04
          0                 4           6            55   99     3       0.5636992967E-01      55   99    3         0.1603963091E+04      0.2169786449E+04
          0                 5           4            55   99     3      -0.3101357144E-01      55   99    3        -0.9676010593E+03      0.1278739682E+04
          0                 6           3            55   99     3       0.1324560271E-01      55   99    3         0.4524981555E+03      0.5852302681E+03
          0                 7           2            55   99     3      -0.4080482837E-02      55   99    3        -0.1524379693E+03      0.1935264814E+03

    ------------------------------------------------
       NWT REQUIRED            7 OUTER ITERATIONS 
       AND A TOTAL OF         43 INNER ITERATIONS.
    ------------------------------------------------

 NO OUTPUT CONTROL FOR STRESS PERIOD   53   TIME STEP    1
 
 SOLVING FOR HEAD 
                                                   Max.-Head-Change                         Max.-Flux-Residual
  Residual-Control   Outer-Iter.   Inner-Iter.     Column Row Layer    Maximum-Head-Change  Column Row Layer    Maximum-Flux-Residual          L2-NORM 
          0                 1          10            87   54     3       0.4202075653E+01      61   85    2        -0.7389828224E+05      0.5689116739E+06
          0                 2           9            56   81     2      -0.2309861423E+01      25   22    1        -0.7427742325E+04      0.5845665856E+05
          0                 3           5            56   81     2       0.1922940452E+00      55   99    3        -0.1173460716E+04      0.1550137835E+04
          0                 4           3            55   99     3       0.3100480150E-01      55   99    3         0.8822129471E+03      0.1000957828E+04
          0                 5           3            55   99     3      -0.1675561466E-01      55   99    3        -0.5227474516E+03      0.5925470263E+03
          0                 6           2            55   99     3       0.6970988769E-02      55   99    3         0.2381429675E+03      0.2690856010E+03

    ------------------------------------------------
       NWT REQUIRED            6 OUTER ITERATIONS 
       AND A TOTAL OF         32 INNER ITERATIONS.
    ------------------------------------------------

 NO OUTPUT CONTROL FOR STRESS PERIOD   53   TIME STEP    2
 
 SOLVING FOR HEAD 
                                                   Max.-Head-Change                         Max.-Flux-Residual
  Residual-Control   Outer-Iter.   Inner-Iter.     Column Row Layer    Maximum-Head-Change  Column Row Layer    Maximum-Flux-Residual          L2-NORM 
          0                 1          10            53  107     3       0.2800777186E+01      61   85    2        -0.6444090862E+05      0.4950335381E+06
          0                 2           9            66   52     1      -0.1471417975E+01      66   52    1        -0.7613229649E+04      0.5063966611E+05
          0                 3           7            66   52     1       0.1250919403E+00      55   99    3        -0.7894521458E+03      0.1352891575E+04
          0                 4           6            55   99     3       0.2062277474E-01      55   99    3         0.5867821147E+03      0.5883088559E+03
          0                 5           4            55   99     3      -0.1101784908E-01      55   99    3        -0.3437226426E+03      0.3439305546E+03
          0                 6           3            55   99     3       0.4511881194E-02      55   99    3         0.1541292178E+03      0.1541998916E+03

    ------------------------------------------------
       NWT REQUIRED            6 OUTER ITERATIONS 
       AND A TOTAL OF         39 INNER ITERATIONS.
    ------------------------------------------------

 NO OUTPUT CONTROL FOR STRESS PERIOD   53   TIME STEP    3
 
 SOLVING FOR HEAD 
                                                   Max.-Head-Change                         Max.-Flux-Residual
  Residual-Control   Outer-Iter.   Inner-Iter.     Column Row Layer    Maximum-Head-Change  Column Row Layer    Maximum-Flux-Residual          L2-NORM 
          0                 1          10            53  107     3       0.2594004436E+01      61   85    2        -0.5668747316E+05      0.4560207404E+06
          0                 2           9            90   67     2       0.2098816871E+01      90   67    2         0.1930124898E+05      0.5037404176E+05
          0                 3           6            90   67     2      -0.1907541905E+00      57   74    1        -0.4767653579E+04      0.5230916806E+04
          0                 4           3            55   99     3       0.1507853129E-01      57   74    1        -0.4293412780E+03      0.6403538329E+03
          0                 5           2            55   99     3      -0.7982582160E-02      55   99    3        -0.2490207782E+03      0.2795989140E+03

    ------------------------------------------------
       NWT REQUIRED            5 OUTER ITERATIONS 
       AND A TOTAL OF         30 INNER ITERATIONS.
    ------------------------------------------------

 NO OUTPUT CONTROL FOR STRESS PERIOD   53   TIME STEP    4
 
 SOLVING FOR HEAD 
                                                   Max.-Head-Change                         Max.-Flux-Residual
  Residual-Control   Outer-Iter.   Inner-Iter.     Column Row Layer    Maximum-Head-Change  Column Row Layer    Maximum-Flux-Residual          L2-NORM 
          0                 1          10            53  107     3       0.2401115440E+01      61   85    2        -0.5087476696E+05      0.4322649787E+06
          0                 2           9            57   82     3       0.2604457053E+00      57   82    3         0.8213748509E+04      0.4404828563E+05
          0                 3           5            55   99     3      -0.1528827919E-01      55   99    3        -0.3962491465E+03      0.5704078824E+03
          0                 4           2            55   99     3       0.1017446583E-01      55   99    3         0.2894762380E+03      0.4021047635E+03
          0                 5           2            55   99     3      -0.5338277109E-02      55   99    3        -0.1665241301E+03      0.2337947555E+03

    ------------------------------------------------
       NWT REQUIRED            5 OUTER ITERATIONS 
       AND A TOTAL OF         28 INNER ITERATIONS.
    ------------------------------------------------

 NO OUTPUT CONTROL FOR STRESS PERIOD   53   TIME STEP    5
 
 SOLVING FOR HEAD 
                                                   Max.-Head-Change                         Max.-Flux-Residual
  Residual-Control   Outer-Iter.   Inner-Iter.     Column Row Layer    Maximum-Head-Change  Column Row Layer    Maximum-Flux-Residual          L2-NORM 
          0                 1          10            53  107     3       0.2221950388E+01      61   85    2        -0.4652436598E+05      0.4150643228E+06
          0                 2           9            81   59     1      -0.3066171551E+00      60   65    2         0.1200231450E+05      0.4377822982E+05
          0                 3           6            60   65     1      -0.6159301619E-01      60   65    1        -0.5562504159E+04      0.5613215343E+04
          0                 4           4            55  100     3       0.1011941419E-01      60   65    1        -0.5015019459E+03      0.6266564646E+03
          0                 5           3            55  100     3      -0.5385517288E-02      55  100    3        -0.1723427882E+03      0.2214310458E+03

    ------------------------------------------------
       NWT REQUIRED            5 OUTER ITERATIONS 
       AND A TOTAL OF         32 INNER ITERATIONS.
    ------------------------------------------------

 NO OUTPUT CONTROL FOR STRESS PERIOD   53   TIME STEP    6
 
 SOLVING FOR HEAD 
                                                   Max.-Head-Change                         Max.-Flux-Residual
  Residual-Control   Outer-Iter.   Inner-Iter.     Column Row Layer    Maximum-Head-Change  Column Row Layer    Maximum-Flux-Residual          L2-NORM 
          0                 1          10            81   59     1      -0.4852379533E+01      88   65    1         0.4359342623E+05      0.4018501045E+06
          0                 2           9            58   83     2      -0.2942755138E+01      55   40    2         0.1076320199E+05      0.4419952983E+05
          0                 3           5            58   83     2       0.2166814493E+00      58   83    2         0.7801439733E+03      0.1439258284E+04
          0                 4           3            55  100     3       0.9929924715E-02      55  100    3         0.2898850377E+03      0.3537341752E+03

    ------------------------------------------------
       NWT REQUIRED            4 OUTER ITERATIONS 
       AND A TOTAL OF         27 INNER ITERATIONS.
    ------------------------------------------------

 NO OUTPUT CONTROL FOR STRESS PERIOD   53   TIME STEP    7
 
 SOLVING FOR HEAD 
                                                   Max.-Head-Change                         Max.-Flux-Residual
  Residual-Control   Outer-Iter.   Inner-Iter.     Column Row Layer    Maximum-Head-Change  Column Row Layer    Maximum-Flux-Residual          L2-NORM 
          0                 1          10            53  107     3       0.1902789038E+01      91   67    2         0.4199617254E+05      0.3916188616E+06
          0                 2           9            91   67     1      -0.1080692837E+01      91   67    1        -0.4751243451E+05      0.6191616487E+05
          0                 3           5            83   60     1       0.5259822793E-01      55  100    3        -0.4996680227E+03      0.6621605406E+03
          0                 4           2            55  100     3       0.1252005123E-01      55  100    3         0.3655544445E+03      0.4390339546E+03
          0                 5           2            55  100     3      -0.6580333369E-02      55  100    3        -0.2106637936E+03      0.2514408479E+03

    ------------------------------------------------
       NWT REQUIRED            5 OUTER ITERATIONS 
       AND A TOTAL OF         28 INNER ITERATIONS.
    ------------------------------------------------

 NO OUTPUT CONTROL FOR STRESS PERIOD   53   TIME STEP    8
 
 SOLVING FOR HEAD 
                                                   Max.-Head-Change                         Max.-Flux-Residual
  Residual-Control   Outer-Iter.   Inner-Iter.     Column Row Layer    Maximum-Head-Change  Column Row Layer    Maximum-Flux-Residual          L2-NORM 
          0                 1          10            83   60     1      -0.3307957155E+01      88   65    1         0.4019308105E+05      0.3824554100E+06
          0                 2           9            61   81     1      -0.2851062014E+00      58   61    2         0.1146824384E+05      0.4240231641E+05
          0                 3           5            61   81     1       0.2545224497E-01      61   81    1         0.8213289582E+03      0.9784344206E+03
          0                 4           2            55  100     3       0.1013829314E-01      55  100    3         0.2960253250E+03      0.3579602920E+03
          0                 5           2            55  100     3      -0.5289390304E-02      55  100    3        -0.1693422996E+03      0.2034941384E+03

    ------------------------------------------------
       NWT REQUIRED            5 OUTER ITERATIONS 
       AND A TOTAL OF         28 INNER ITERATIONS.
    ------------------------------------------------

 NO OUTPUT CONTROL FOR STRESS PERIOD   53   TIME STEP    9
 
 SOLVING FOR HEAD 
                                                   Max.-Head-Change                         Max.-Flux-Residual
  Residual-Control   Outer-Iter.   Inner-Iter.     Column Row Layer    Maximum-Head-Change  Column Row Layer    Maximum-Flux-Residual          L2-NORM 
          0                 1          10            53  107     3       0.1631344663E+01      88   65    1         0.3862075615E+05      0.3747241309E+06
          0                 2           9            57   82     2      -0.4525173794E+00      25   22    2         0.4086817322E+04      0.3831539074E+05
          0                 3           5            62   58     1      -0.5502915978E-01      62   58    1        -0.3110826484E+04      0.3205301913E+04
          0                 4           3            55  100     3       0.8880631649E-02      62   58    1        -0.2802224745E+03      0.4223480629E+03

    ------------------------------------------------
       NWT REQUIRED            4 OUTER ITERATIONS 
       AND A TOTAL OF         27 INNER ITERATIONS.
    ------------------------------------------------

 NO OUTPUT CONTROL FOR STRESS PERIOD   53   TIME STEP   10
 
 SOLVING FOR HEAD 
                                                   Max.-Head-Change                         Max.-Flux-Residual
  Residual-Control   Outer-Iter.   Inner-Iter.     Column Row Layer    Maximum-Head-Change  Column Row Layer    Maximum-Flux-Residual          L2-NORM 
          0                 1          10            57   82     2      -0.1939835701E+01      88   65    1         0.3712837819E+05      0.3683792345E+06
          0                 2           9            57   82     2       0.1718144644E+00      75   48    1        -0.4930777010E+04      0.3787397458E+05
          0                 3           5            55  100     3      -0.1617103215E-01      55  100    3        -0.4302096220E+03      0.6280644619E+03
          0                 4           2            55  100     3       0.1060234858E-01      55  100    3         0.3096109456E+03      0.3767342042E+03
          0                 5           2            55  100     3      -0.5468550309E-02      55  100    3        -0.1750982795E+03      0.2117263233E+03

    ------------------------------------------------
       NWT REQUIRED            5 OUTER ITERATIONS 
       AND A TOTAL OF         28 INNER ITERATIONS.
    ------------------------------------------------

 NO OUTPUT CONTROL FOR STRESS PERIOD   53   TIME STEP   11
 
 SOLVING FOR HEAD 
                                                   Max.-Head-Change                         Max.-Flux-Residual
  Residual-Control   Outer-Iter.   Inner-Iter.     Column Row Layer    Maximum-Head-Change  Column Row Layer    Maximum-Flux-Residual          L2-NORM 
          0                 1          10            55   40     1      -0.1408215563E+01      88   65    1         0.3571019732E+05      0.3627472822E+06
          0                 2           9            79   58     1      -0.6726504860E+00      19   17    1        -0.4382457177E+04      0.3694774358E+05
          0                 3           5            79   58     1       0.5234733542E-01      55  100    3        -0.3475920099E+03      0.6237038847E+03
          0                 4           2            55  100     3       0.8515326838E-02      55  100    3         0.2486651908E+03      0.3073466218E+03

    ------------------------------------------------
       NWT REQUIRED            4 OUTER ITERATIONS 
       AND A TOTAL OF         26 INNER ITERATIONS.
    ------------------------------------------------

 OUTPUT CONTROL FOR STRESS PERIOD   53   TIME STEP   12
    SAVE BUDGET
 UBDSV1 SAVING "         STORAGE" ON UNIT  39 AT TIME STEP 12, STRESS PERIOD  53
 UBDSV2 SAVING "   CONSTANT HEAD" ON UNIT  39 AT TIME STEP 12, STRESS PERIOD  53
 UBDSV1 SAVING "FLOW RIGHT FACE " ON UNIT  39 AT TIME STEP 12, STRESS PERIOD  53
 UBDSV1 SAVING "FLOW FRONT FACE " ON UNIT  39 AT TIME STEP 12, STRESS PERIOD  53
 UBDSV1 SAVING "FLOW LOWER FACE " ON UNIT  39 AT TIME STEP 12, STRESS PERIOD  53
 UBDSV4 SAVING "           WELLS" ON UNIT  39 AT TIME STEP 12, STRESS PERIOD  53
 UBDSV3 SAVING "              ET" ON UNIT  39 AT TIME STEP 12, STRESS PERIOD  53
 UBDSV3 SAVING "        RECHARGE" ON UNIT  39 AT TIME STEP 12, STRESS PERIOD  53
1
  VOLUMETRIC BUDGET FOR ENTIRE MODEL AT END OF TIME STEP   12, STRESS PERIOD  53
  ------------------------------------------------------------------------------

     CUMULATIVE VOLUMES      L**3       RATES FOR THIS TIME STEP      L**3/T
     ------------------                 ------------------------

           IN:                                      IN:
           ---                                      ---
             STORAGE =340517552128.0000               STORAGE =    14078380.0000
       CONSTANT HEAD = 33324343296.0000         CONSTANT HEAD =     2450390.7500
               WELLS = 23726712832.0000                 WELLS =     1225642.0000
                  ET =           0.0000                    ET =           0.0000
            RECHARGE =389053644800.0000              RECHARGE =    22405218.0000

            TOTAL IN =786622251008.0000              TOTAL IN =    40159632.0000

          OUT:                                     OUT:
          ----                                     ----
             STORAGE = 68551532544.0000               STORAGE =     4674154.5000
       CONSTANT HEAD = 62488133632.0000         CONSTANT HEAD =     2145115.2500
               WELLS =636164636672.0000                 WELLS =    32205488.0000
                  ET = 19417915392.0000                    ET =     1135114.5000
            RECHARGE =           0.0000              RECHARGE =           0.0000

           TOTAL OUT =786622185472.0000             TOTAL OUT =    40159872.0000

            IN - OUT =       65536.0000              IN - OUT =        -240.0000

 PERCENT DISCREPANCY =           0.00     PERCENT DISCREPANCY =          -0.00






         TIME SUMMARY AT END OF TIME STEP   12 IN STRESS PERIOD   53
                    SECONDS     MINUTES      HOURS       DAYS        YEARS
                    -----------------------------------------------------------
   TIME STEP LENGTH 2.63520E+06  43920.      732.00      30.500     8.35044E-02
 STRESS PERIOD TIME 3.16224E+07 5.27040E+05  8784.0      366.00      1.0021    
         TOTAL TIME 1.67262E+09 2.78770E+07 4.64616E+05  19359.      53.002    
1
1
                            STRESS PERIOD NO.   54, LENGTH =   365.0000    
                            -----------------------------------------------

                              NUMBER OF TIME STEPS =    12

                               MULTIPLIER FOR DELT =     1.000

                            INITIAL TIME STEP SIZE =   30.41667    

   1738 WELLS

 REUSING SURF FROM LAST STRESS PERIOD

 REUSING EVTR FROM LAST STRESS PERIOD

 REUSING EXDP FROM LAST STRESS PERIOD



                           RECHARGE
 READING ON UNIT   16 WITH FORMAT: (15F5.0)            


     63 TIME-VARIANT SPECIFIED-HEAD CELLS
 
 SOLVING FOR HEAD 
                                                   Max.-Head-Change                         Max.-Flux-Residual
  Residual-Control   Outer-Iter.   Inner-Iter.     Column Row Layer    Maximum-Head-Change  Column Row Layer    Maximum-Flux-Residual          L2-NORM 
          0                 1          11            92   77     2       0.1112747976E+03      83   51    1         0.2826403163E+06      0.2041968278E+07
          0                 2          10            65    7     2      -0.5416450543E+02      65    7    2        -0.1497099170E+07      0.2345559119E+07
          0                 3           7            66    7     2       0.1977640402E+02      65    7    2        -0.4287589543E+05      0.6439784507E+05
          0                 4           5            66    4     2      -0.7951187389E+01      65    3    2        -0.2483588489E+06      0.4133747548E+06
          0                 5           4            66    4     2      -0.1390063703E+01      65    3    2        -0.4318621740E+05      0.7242204300E+05
          0                 6           3            66    4     2      -0.2382958073E+00      65    3    2        -0.7405965095E+04      0.1369217251E+05
          0                 7           3            55  100     3      -0.7550307171E-01      55  100    3        -0.2906367984E+04      0.3588266999E+04
          0                 8           2            55  100     3       0.2629169412E-01      55  100    3         0.1104899038E+04      0.1161904351E+04
          0                 9           2            55  100     3      -0.6119149941E-02      55  100    3        -0.2803957674E+03      0.2870445546E+03

    ------------------------------------------------
       NWT REQUIRED            9 OUTER ITERATIONS 
       AND A TOTAL OF         47 INNER ITERATIONS.
    ------------------------------------------------

 NO OUTPUT CONTROL FOR STRESS PERIOD   54   TIME STEP    1
 
 SOLVING FOR HEAD 
                                                   Max.-Head-Change                         Max.-Flux-Residual
  Residual-Control   Outer-Iter.   Inner-Iter.     Column Row Layer    Maximum-Head-Change  Column Row Layer    Maximum-Flux-Residual          L2-NORM 
          0                 1          11            84   56     3       0.1341325296E+02      83   51    1         0.2419713513E+06      0.1565205843E+07
          0                 2           9            83   52     2       0.2113409723E+01      69   21    1        -0.6528280370E+05      0.2096872228E+06
          0                 3           7            83   52     2      -0.1921635092E+00      17   15    2         0.5432490011E+04      0.9777012771E+04
          0                 4           5            55  100     3       0.1574212873E+00      55  100    3         0.4616406502E+04      0.4662621815E+04
          0                 5           4            55  100     3      -0.1083425211E+00      55  100    3        -0.3483237682E+04      0.3484876964E+04
          0                 6           3            55  100     3       0.6079656365E-01      55  100    3         0.2140070534E+04      0.2140103525E+04
          0                 7           2            55  100     3      -0.2569250550E-01      55  100    3        -0.9890167276E+03      0.9890172574E+03
          0                 8           2            55  100     3       0.8128934624E-02      55  100    3         0.3416519355E+03      0.3416520878E+03

    ------------------------------------------------
       NWT REQUIRED            8 OUTER ITERATIONS 
       AND A TOTAL OF         43 INNER ITERATIONS.
    ------------------------------------------------

 NO OUTPUT CONTROL FOR STRESS PERIOD   54   TIME STEP    2
 
 SOLVING FOR HEAD 
                                                   Max.-Head-Change                         Max.-Flux-Residual
  Residual-Control   Outer-Iter.   Inner-Iter.     Column Row Layer    Maximum-Head-Change  Column Row Layer    Maximum-Flux-Residual          L2-NORM 
          0                 1          11            92   52     1       0.5844605269E+01      92   52    1         0.2096939730E+06      0.1359199163E+07
          0                 2           9            82   52     1      -0.1914582989E+01      82   52    1        -0.8743451626E+05      0.1792818698E+06
          0                 3           6            89   65     2      -0.1640200164E+00      17   15    2        -0.2700953841E+04      0.4517407653E+04
          0                 4           3            55  100     3       0.7306328916E-01      55  100    3         0.2143013022E+04      0.2165464200E+04
          0                 5           2            55  100     3      -0.4929372712E-01      55  100    3        -0.1584919819E+04      0.1586648663E+04
          0                 6           2            55  100     3       0.2672700892E-01      55  100    3         0.9408789002E+03      0.9409266303E+03
          0                 7           2            55  100     3      -0.1098696882E-01      55  100    3        -0.4229508519E+03      0.4229511149E+03
          0                 8           2            55  100     3       0.3314244406E-02      55  100    3         0.1393039151E+03      0.1393039835E+03

    ------------------------------------------------
       NWT REQUIRED            8 OUTER ITERATIONS 
       AND A TOTAL OF         37 INNER ITERATIONS.
    ------------------------------------------------

 NO OUTPUT CONTROL FOR STRESS PERIOD   54   TIME STEP    3
 
 SOLVING FOR HEAD 
                                                   Max.-Head-Change                         Max.-Flux-Residual
  Residual-Control   Outer-Iter.   Inner-Iter.     Column Row Layer    Maximum-Head-Change  Column Row Layer    Maximum-Flux-Residual          L2-NORM 
          0                 1          11            88   64     1       0.5512318328E+01      92   52    1         0.1944850948E+06      0.1227664069E+07
          0                 2           9            84   52     1      -0.9037941800E+00      84   52    1        -0.5043386119E+05      0.1383208130E+06
          0                 3           6            66   25     2      -0.7400392049E-01      66   25    2        -0.1724946495E+04      0.3049397370E+04
          0                 4           3            55  100     3       0.3742591117E-01      55  100    3         0.1097892351E+04      0.1224305249E+04
          0                 5           3            55  100     3      -0.2495323458E-01      55  100    3        -0.8023618330E+03      0.8084605185E+03
          0                 6           2            55  100     3       0.1327511225E-01      55  100    3         0.4673529769E+03      0.4676306407E+03
          0                 7           2            55  100     3      -0.5367857598E-02      55  100    3        -0.2066453828E+03      0.2066606698E+03

    ------------------------------------------------
       NWT REQUIRED            7 OUTER ITERATIONS 
       AND A TOTAL OF         36 INNER ITERATIONS.
    ------------------------------------------------

 NO OUTPUT CONTROL FOR STRESS PERIOD   54   TIME STEP    4
 
 SOLVING FOR HEAD 
                                                   Max.-Head-Change                         Max.-Flux-Residual
  Residual-Control   Outer-Iter.   Inner-Iter.     Column Row Layer    Maximum-Head-Change  Column Row Layer    Maximum-Flux-Residual          L2-NORM 
          0                 1          11            88   64     1       0.5254546279E+01      92   52    1         0.1803778154E+06      0.1133847333E+07
          0                 2           9            73   15     3       0.2660439315E+01      73   15    3         0.2022706666E+05      0.1200785533E+06
          0                 3           7            73   15     3      -0.2071458227E+00      44   30    2         0.3108690639E+04      0.3863796819E+04
          0                 4           5            55  100     3       0.1943230018E-01      55  100    3         0.5701060191E+03      0.6466747554E+03
          0                 5           4            55  100     3      -0.1285400475E-01      55  100    3        -0.4133360624E+03      0.4152309249E+03
          0                 6           3            55  100     3       0.6756686016E-02      55  100    3         0.2378794463E+03      0.2379289425E+03

    ------------------------------------------------
       NWT REQUIRED            6 OUTER ITERATIONS 
       AND A TOTAL OF         39 INNER ITERATIONS.
    ------------------------------------------------

 NO OUTPUT CONTROL FOR STRESS PERIOD   54   TIME STEP    5
 
 SOLVING FOR HEAD 
                                                   Max.-Head-Change                         Max.-Flux-Residual
  Residual-Control   Outer-Iter.   Inner-Iter.     Column Row Layer    Maximum-Head-Change  Column Row Layer    Maximum-Flux-Residual          L2-NORM 
          0                 1          11            88   64     1       0.5007119089E+01      88   65    1         0.1689837396E+06      0.1062621495E+07
          0                 2           9            80   45     2       0.2321635888E+01      44   30    2         0.2213244361E+05      0.1133957389E+06
          0                 3           7            80   45     2      -0.2110577811E+00      26   20    2         0.3397239810E+04      0.4412401324E+04
          0                 4           6            55  100     3       0.1499330089E-01      55  100    3         0.4398140862E+03      0.5396731824E+03
          0                 5           4            55  100     3      -0.9877527449E-02      55  100    3        -0.3176123146E+03      0.3192358186E+03

    ------------------------------------------------
       NWT REQUIRED            5 OUTER ITERATIONS 
       AND A TOTAL OF         37 INNER ITERATIONS.
    ------------------------------------------------

 NO OUTPUT CONTROL FOR STRESS PERIOD   54   TIME STEP    6
 
 SOLVING FOR HEAD 
                                                   Max.-Head-Change                         Max.-Flux-Residual
  Residual-Control   Outer-Iter.   Inner-Iter.     Column Row Layer    Maximum-Head-Change  Column Row Layer    Maximum-Flux-Residual          L2-NORM 
          0                 1          11            91   67     2       0.1250558168E+02      88   65    1         0.1615358767E+06      0.1008119542E+07
          0                 2           9            91   67     2      -0.1147755584E+01      35   29    1        -0.1760616855E+05      0.1038998141E+06
          0                 3           7            35   29     2       0.3252600464E-01      35   29    2         0.2039405187E+04      0.2286576628E+04
          0                 4           5            55  100     3       0.5883798433E-02      35   29    2         0.1835215041E+03      0.2536027773E+03

    ------------------------------------------------
       NWT REQUIRED            4 OUTER ITERATIONS 
       AND A TOTAL OF         32 INNER ITERATIONS.
    ------------------------------------------------

 NO OUTPUT CONTROL FOR STRESS PERIOD   54   TIME STEP    7
 
 SOLVING FOR HEAD 
                                                   Max.-Head-Change                         Max.-Flux-Residual
  Residual-Control   Outer-Iter.   Inner-Iter.     Column Row Layer    Maximum-Head-Change  Column Row Layer    Maximum-Flux-Residual          L2-NORM 
          0                 1          11            91   67     1       0.4624155423E+01      91   67    1         0.1702114840E+06      0.9699349344E+06
          0                 2           9            70   19     2       0.2613583905E+01      70   19    2         0.2975687348E+05      0.1154193742E+06
          0                 3           6            70   19     2      -0.2376144496E+00      70   19    2        -0.2969236089E+04      0.4044534057E+04
          0                 4           2            55  100     3       0.8245673684E-02      55  100    3         0.2418081021E+03      0.2418642519E+03

    ------------------------------------------------
       NWT REQUIRED            4 OUTER ITERATIONS 
       AND A TOTAL OF         28 INNER ITERATIONS.
    ------------------------------------------------

 NO OUTPUT CONTROL FOR STRESS PERIOD   54   TIME STEP    8
 
 SOLVING FOR HEAD 
                                                   Max.-Head-Change                         Max.-Flux-Residual
  Residual-Control   Outer-Iter.   Inner-Iter.     Column Row Layer    Maximum-Head-Change  Column Row Layer    Maximum-Flux-Residual          L2-NORM 
          0                 1          11            72   15     2       0.5093375960E+01      91   67    1         0.1638333032E+06      0.9331571314E+06
          0                 2           9            73   14     1      -0.9797688774E+00      73   14    1        -0.3300074415E+05      0.1019965627E+06
          0                 3           6            64   27     1      -0.1306062265E-01      23   21    2        -0.7255086385E+03      0.1090040042E+04
          0                 4           2            55  100     3       0.9901846073E-02      55  100    3         0.2903379524E+03      0.2905141595E+03

    ------------------------------------------------
       NWT REQUIRED            4 OUTER ITERATIONS 
       AND A TOTAL OF         28 INNER ITERATIONS.
    ------------------------------------------------

 NO OUTPUT CONTROL FOR STRESS PERIOD   54   TIME STEP    9
 
 SOLVING FOR HEAD 
                                                   Max.-Head-Change                         Max.-Flux-Residual
  Residual-Control   Outer-Iter.   Inner-Iter.     Column Row Layer    Maximum-Head-Change  Column Row Layer    Maximum-Flux-Residual          L2-NORM 
          0                 1          11            91   67     1       0.4265461386E+01      91   67    1         0.1573667183E+06      0.9049880639E+06
          0                 2           9            84   58     2      -0.2282174585E+01      89   67    1        -0.3610828023E+05      0.1005433280E+06
          0                 3           6            78   52     2      -0.1034036783E+00      78   52    2        -0.7354481174E+03      0.8830184370E+03
          0                 4           2            55  100     3       0.1092225912E-01      55  100    3         0.3202378532E+03      0.3208261218E+03
          0                 5           2            55  100     3      -0.7133193224E-02      55  100    3        -0.2293314717E+03      0.2293845746E+03

    ------------------------------------------------
       NWT REQUIRED            5 OUTER ITERATIONS 
       AND A TOTAL OF         30 INNER ITERATIONS.
    ------------------------------------------------

 NO OUTPUT CONTROL FOR STRESS PERIOD   54   TIME STEP   10
 
 SOLVING FOR HEAD 
                                                   Max.-Head-Change                         Max.-Flux-Residual
  Residual-Control   Outer-Iter.   Inner-Iter.     Column Row Layer    Maximum-Head-Change  Column Row Layer    Maximum-Flux-Residual          L2-NORM 
          0                 1          11            78   52     2       0.4186480524E+01      91   67    1         0.1510022366E+06      0.8783097894E+06
          0                 2           9            79   85     1      -0.6760118959E+00      91   67    1        -0.1519028735E+05      0.9199064549E+05
          0                 3           6            79   85     1       0.5485644245E-01      28   24    2        -0.8327595215E+03      0.1444985298E+04
          0                 4           2            55  100     3       0.3300400507E-02      55  100    3         0.9672118733E+02      0.9982474033E+02

    ------------------------------------------------
       NWT REQUIRED            4 OUTER ITERATIONS 
       AND A TOTAL OF         28 INNER ITERATIONS.
    ------------------------------------------------

 NO OUTPUT CONTROL FOR STRESS PERIOD   54   TIME STEP   11
 
 SOLVING FOR HEAD 
                                                   Max.-Head-Change                         Max.-Flux-Residual
  Residual-Control   Outer-Iter.   Inner-Iter.     Column Row Layer    Maximum-Head-Change  Column Row Layer    Maximum-Flux-Residual          L2-NORM 
          0                 1          11            91   67     1       0.3928231463E+01      91   67    1         0.1449029061E+06      0.8554431822E+06
          0                 2           9            92   67     2       0.8984926771E+01      92   67    2         0.6082943162E+05      0.1081922182E+06
          0                 3           5            92   67     2      -0.8168197703E+00      92   67    2        -0.6082943284E+04      0.6272856518E+04
          0                 4           2            55  100     3       0.3827625871E-02      55  100    3         0.1121730887E+03      0.1156392218E+03

    ------------------------------------------------
       NWT REQUIRED            4 OUTER ITERATIONS 
       AND A TOTAL OF         27 INNER ITERATIONS.
    ------------------------------------------------

 OUTPUT CONTROL FOR STRESS PERIOD   54   TIME STEP   12
    SAVE BUDGET
 UBDSV1 SAVING "         STORAGE" ON UNIT  39 AT TIME STEP 12, STRESS PERIOD  54
 UBDSV2 SAVING "   CONSTANT HEAD" ON UNIT  39 AT TIME STEP 12, STRESS PERIOD  54
 UBDSV1 SAVING "FLOW RIGHT FACE " ON UNIT  39 AT TIME STEP 12, STRESS PERIOD  54
 UBDSV1 SAVING "FLOW FRONT FACE " ON UNIT  39 AT TIME STEP 12, STRESS PERIOD  54
 UBDSV1 SAVING "FLOW LOWER FACE " ON UNIT  39 AT TIME STEP 12, STRESS PERIOD  54
 UBDSV4 SAVING "           WELLS" ON UNIT  39 AT TIME STEP 12, STRESS PERIOD  54
 UBDSV3 SAVING "              ET" ON UNIT  39 AT TIME STEP 12, STRESS PERIOD  54
 UBDSV3 SAVING "        RECHARGE" ON UNIT  39 AT TIME STEP 12, STRESS PERIOD  54
1
  VOLUMETRIC BUDGET FOR ENTIRE MODEL AT END OF TIME STEP   12, STRESS PERIOD  54
  ------------------------------------------------------------------------------

     CUMULATIVE VOLUMES      L**3       RATES FOR THIS TIME STEP      L**3/T
     ------------------                 ------------------------

           IN:                                      IN:
           ---                                      ---
             STORAGE =342861152256.0000               STORAGE =     5043073.5000
       CONSTANT HEAD = 34179829760.0000         CONSTANT HEAD =     2295718.5000
               WELLS = 24174069760.0000                 WELLS =     1225642.0000
                  ET =           0.0000                    ET =           0.0000
            RECHARGE =407861952512.0000              RECHARGE =    51529660.0000

            TOTAL IN =809077047296.0000              TOTAL IN =    60094096.0000

          OUT:                                     OUT:
          ----                                     ----
             STORAGE = 78893400064.0000               STORAGE =    26056680.0000
       CONSTANT HEAD = 63382495232.0000         CONSTANT HEAD =     2580932.2500
               WELLS =646533021696.0000                 WELLS =    28406912.0000
                  ET = 20267851776.0000                    ET =     3049659.0000
            RECHARGE =           0.0000              RECHARGE =           0.0000

           TOTAL OUT =809076785152.0000             TOTAL OUT =    60094184.0000

            IN - OUT =      262144.0000              IN - OUT =         -88.0000

 PERCENT DISCREPANCY =           0.00     PERCENT DISCREPANCY =          -0.00






         TIME SUMMARY AT END OF TIME STEP   12 IN STRESS PERIOD   54
                    SECONDS     MINUTES      HOURS       DAYS        YEARS
                    -----------------------------------------------------------
   TIME STEP LENGTH 2.62800E+06  43800.      730.00      30.417     8.32763E-02
 STRESS PERIOD TIME 3.15360E+07 5.25600E+05  8760.0      365.00     0.99932    
         TOTAL TIME 1.70415E+09 2.84026E+07 4.73376E+05  19724.      54.001    
1
1
                            STRESS PERIOD NO.   55, LENGTH =   365.0000    
                            -----------------------------------------------

                              NUMBER OF TIME STEPS =    12

                               MULTIPLIER FOR DELT =     1.000

                            INITIAL TIME STEP SIZE =   30.41667    

   1680 WELLS

 REUSING SURF FROM LAST STRESS PERIOD

 REUSING EVTR FROM LAST STRESS PERIOD

 REUSING EXDP FROM LAST STRESS PERIOD



                           RECHARGE
 READING ON UNIT   16 WITH FORMAT: (15F5.0)            


     63 TIME-VARIANT SPECIFIED-HEAD CELLS
 
 SOLVING FOR HEAD 
                                                   Max.-Head-Change                         Max.-Flux-Residual
  Residual-Control   Outer-Iter.   Inner-Iter.     Column Row Layer    Maximum-Head-Change  Column Row Layer    Maximum-Flux-Residual          L2-NORM 
          0                 1          11            65    2     2      -0.9119463339E+02      79   49    1        -0.3315799611E+06      0.2044966442E+07
          0                 2          10            83   52     3       0.4615043452E+01      78   52    2         0.1456969836E+06      0.2555514533E+06
          0                 3           6            65    2     2       0.1822371681E+00      22   20    1         0.3359305196E+04      0.5325767209E+04
          0                 4           4            55  100     3      -0.7523772542E-01      55  100    3        -0.2206112519E+04      0.2210745556E+04
          0                 5           3            55  100     3       0.3713257881E-01      55  100    3         0.1193844366E+04      0.1194026910E+04
          0                 6           2            55  100     3      -0.1347790882E-01      55  100    3        -0.4745429341E+03      0.4745518718E+03
          0                 7           2            55  100     3       0.3461185377E-02      55  100    3         0.1332554658E+03      0.1332575506E+03

    ------------------------------------------------
       NWT REQUIRED            7 OUTER ITERATIONS 
       AND A TOTAL OF         38 INNER ITERATIONS.
    ------------------------------------------------

 NO OUTPUT CONTROL FOR STRESS PERIOD   55   TIME STEP    1
 
 SOLVING FOR HEAD 
                                                   Max.-Head-Change                         Max.-Flux-Residual
  Residual-Control   Outer-Iter.   Inner-Iter.     Column Row Layer    Maximum-Head-Change  Column Row Layer    Maximum-Flux-Residual          L2-NORM 
          0                 1          10            83   52     3      -0.1058691180E+02      85   52    1        -0.2410271359E+06      0.1418891831E+07
          0                 2           9            89   67     2       0.3543002074E+01      89   67    2         0.2569399665E+05      0.1451314585E+06
          0                 3           6            89   67     2      -0.3221238577E+00      89   67    2        -0.2678043046E+04      0.4599991744E+04
          0                 4           3            55  100     3      -0.4209587735E-01      55  100    3        -0.1234208024E+04      0.1238590452E+04
          0                 5           2            55  100     3       0.2143153021E-01      55  100    3         0.6890185774E+03      0.6891954426E+03
          0                 6           2            55  100     3      -0.8157725044E-02      55  100    3        -0.2872116428E+03      0.2872171124E+03

    ------------------------------------------------
       NWT REQUIRED            6 OUTER ITERATIONS 
       AND A TOTAL OF         32 INNER ITERATIONS.
    ------------------------------------------------

 NO OUTPUT CONTROL FOR STRESS PERIOD   55   TIME STEP    2
 
 SOLVING FOR HEAD 
                                                   Max.-Head-Change                         Max.-Flux-Residual
  Residual-Control   Outer-Iter.   Inner-Iter.     Column Row Layer    Maximum-Head-Change  Column Row Layer    Maximum-Flux-Residual          L2-NORM 
          0                 1          10            88   51     1      -0.4173591436E+01      76   48    1        -0.1889327068E+06      0.1127132206E+07
          0                 2           9            88   51     1       0.3699685214E+00      76   48    1         0.1877235125E+05      0.1120449182E+06
          0                 3           6            73   54     1      -0.9079022917E-01      73   54    1        -0.2503217429E+04      0.2736917351E+04
          0                 4           4            55  100     3      -0.2319382089E-01      55  100    3        -0.6799491334E+03      0.7206366277E+03
          0                 5           3            55  100     3       0.1197487975E-01      55  100    3         0.3849711487E+03      0.3856730799E+03
          0                 6           2            55  100     3      -0.4658370291E-02      55  100    3        -0.1640011778E+03      0.1640149234E+03

    ------------------------------------------------
       NWT REQUIRED            6 OUTER ITERATIONS 
       AND A TOTAL OF         34 INNER ITERATIONS.
    ------------------------------------------------

 NO OUTPUT CONTROL FOR STRESS PERIOD   55   TIME STEP    3
 
 SOLVING FOR HEAD 
                                                   Max.-Head-Change                         Max.-Flux-Residual
  Residual-Control   Outer-Iter.   Inner-Iter.     Column Row Layer    Maximum-Head-Change  Column Row Layer    Maximum-Flux-Residual          L2-NORM 
          0                 1          10            88   51     1      -0.3690365347E+01      76   48    1        -0.1505127381E+06      0.9501517876E+06
          0                 2           9            65    6     2      -0.2149037011E+02      76   48    1         0.1497598769E+05      0.9636179585E+05
          0                 3           6            65    6     2       0.1137748825E+01      65    6    3        -0.1179246221E+04      0.1909534302E+04
          0                 4           3            65    6     2       0.4384861061E-01      55  100    3        -0.3660384099E+03      0.3703469029E+03
          0                 5           2            55  100     3       0.6493365140E-02      55  100    3         0.2087384046E+03      0.2088873183E+03

    ------------------------------------------------
       NWT REQUIRED            5 OUTER ITERATIONS 
       AND A TOTAL OF         30 INNER ITERATIONS.
    ------------------------------------------------

 NO OUTPUT CONTROL FOR STRESS PERIOD   55   TIME STEP    4
 
 SOLVING FOR HEAD 
                                                   Max.-Head-Change                         Max.-Flux-Residual
  Residual-Control   Outer-Iter.   Inner-Iter.     Column Row Layer    Maximum-Head-Change  Column Row Layer    Maximum-Flux-Residual          L2-NORM 
          0                 1          10            92   77     2      -0.8448026112E+02      69   47    1        -0.1292714585E+06      0.8313698856E+06
          0                 2           9            92   77     2       0.1352273302E+02      69   47    1         0.1269523437E+05      0.8360749656E+05
          0                 3           5            92   77     2       0.6391469462E+00      58   71    1         0.6436312687E+03      0.1064842674E+04
          0                 4           2            92   77     2       0.2912874593E-01      55  100    3        -0.1523216651E+03      0.1569469842E+03
          0                 5           2            55  100     3       0.2715149189E-02      55  100    3         0.8727476491E+02      0.8740516489E+02

    ------------------------------------------------
       NWT REQUIRED            5 OUTER ITERATIONS 
       AND A TOTAL OF         28 INNER ITERATIONS.
    ------------------------------------------------

 NO OUTPUT CONTROL FOR STRESS PERIOD   55   TIME STEP    5
 
 SOLVING FOR HEAD 
                                                   Max.-Head-Change                         Max.-Flux-Residual
  Residual-Control   Outer-Iter.   Inner-Iter.     Column Row Layer    Maximum-Head-Change  Column Row Layer    Maximum-Flux-Residual          L2-NORM 
          0                 1          10            65    3     2      -0.1597908028E+02      69   47    1        -0.1157896147E+06      0.7479300679E+06
          0                 2           9            69   21     1      -0.4039068253E+01      69   21    1        -0.2018124281E+05      0.7717754044E+05
          0                 3           6            69   21     1       0.3447193332E+00      69   21    1         0.1896108919E+04      0.2072675667E+04
          0                 4           4            65    5     2       0.6943608438E-02      55  100    3        -0.5954112727E+02      0.8815619277E+02

    ------------------------------------------------
       NWT REQUIRED            4 OUTER ITERATIONS 
       AND A TOTAL OF         29 INNER ITERATIONS.
    ------------------------------------------------

 NO OUTPUT CONTROL FOR STRESS PERIOD   55   TIME STEP    6
 
 SOLVING FOR HEAD 
                                                   Max.-Head-Change                         Max.-Flux-Residual
  Residual-Control   Outer-Iter.   Inner-Iter.     Column Row Layer    Maximum-Head-Change  Column Row Layer    Maximum-Flux-Residual          L2-NORM 
          0                 1          10            65    5     2      -0.2933679269E+02      69   47    1        -0.1041777826E+06      0.6864850298E+06
          0                 2           9            65    5     2       0.2047826874E+01      69   47    1         0.1027244463E+05      0.6902484272E+05
          0                 3           5            65    5     2       0.9140665096E-01      23   21    1         0.6172109426E+03      0.9462833939E+03
          0                 4           3            65    5     2       0.4076286838E-02      55  100    3        -0.3608461857E+02      0.4143621930E+02

    ------------------------------------------------
       NWT REQUIRED            4 OUTER ITERATIONS 
       AND A TOTAL OF         27 INNER ITERATIONS.
    ------------------------------------------------

 NO OUTPUT CONTROL FOR STRESS PERIOD   55   TIME STEP    7
 
 SOLVING FOR HEAD 
                                                   Max.-Head-Change                         Max.-Flux-Residual
  Residual-Control   Outer-Iter.   Inner-Iter.     Column Row Layer    Maximum-Head-Change  Column Row Layer    Maximum-Flux-Residual          L2-NORM 
          0                 1          10            81   45     1      -0.2676047877E+01      92   52    1        -0.9482720139E+05      0.6392789729E+06
          0                 2           9            61   82     2       0.2753470768E+00      61   82    2         0.1729742368E+05      0.6676644386E+05
          0                 3           5            25   23     1       0.5154366423E-02      25   23    1         0.2361280359E+03      0.3071328433E+03

    ------------------------------------------------
       NWT REQUIRED            3 OUTER ITERATIONS 
       AND A TOTAL OF         24 INNER ITERATIONS.
    ------------------------------------------------

 NO OUTPUT CONTROL FOR STRESS PERIOD   55   TIME STEP    8
 
 SOLVING FOR HEAD 
                                                   Max.-Head-Change                         Max.-Flux-Residual
  Residual-Control   Outer-Iter.   Inner-Iter.     Column Row Layer    Maximum-Head-Change  Column Row Layer    Maximum-Flux-Residual          L2-NORM 
          0                 1          10            81   45     1      -0.2564688484E+01      92   52    1        -0.8833556638E+05      0.6024070727E+06
          0                 2           9            81   45     1       0.2328352928E+00      44   30    1        -0.9409346753E+04      0.6125509358E+05
          0                 3           6            61   82     1       0.1671484866E-01      44   30    1         0.9246301500E+03      0.1210140533E+04
          0                 4           3            55  100     3       0.3070353651E-03      55  100    3         0.8995188043E+01      0.9549145546E+01

    ------------------------------------------------
       NWT REQUIRED            4 OUTER ITERATIONS 
       AND A TOTAL OF         28 INNER ITERATIONS.
    ------------------------------------------------

 NO OUTPUT CONTROL FOR STRESS PERIOD   55   TIME STEP    9
 
 SOLVING FOR HEAD 
                                                   Max.-Head-Change                         Max.-Flux-Residual
  Residual-Control   Outer-Iter.   Inner-Iter.     Column Row Layer    Maximum-Head-Change  Column Row Layer    Maximum-Flux-Residual          L2-NORM 
          0                 1          10            81   45     1      -0.2459495577E+01      92   52    1        -0.8276335189E+05      0.5739672471E+06
          0                 2           9            83   60     1      -0.1814207218E+01      92   52    1         0.8206428021E+04      0.5768002670E+05
          0                 3           6            83   60     1       0.1190868246E+00      42   31    1        -0.3299175161E+04      0.3305561289E+04
          0                 4           5            83   60     1       0.3004346068E-02      42   31    1        -0.2970804313E+03      0.2979510403E+03

    ------------------------------------------------
       NWT REQUIRED            4 OUTER ITERATIONS 
       AND A TOTAL OF         30 INNER ITERATIONS.
    ------------------------------------------------

 NO OUTPUT CONTROL FOR STRESS PERIOD   55   TIME STEP   10
 
 SOLVING FOR HEAD 
                                                   Max.-Head-Change                         Max.-Flux-Residual
  Residual-Control   Outer-Iter.   Inner-Iter.     Column Row Layer    Maximum-Head-Change  Column Row Layer    Maximum-Flux-Residual          L2-NORM 
          0                 1          10            83   60     1      -0.3386947174E+01      92   52    1        -0.7794135707E+05      0.5507024418E+06
          0                 2           9            56   80     2      -0.1791524580E+01      42   31    1        -0.1454059938E+05      0.5745644181E+05
          0                 3           6            56   80     2       0.1326131065E+00      42   31    1         0.1443191046E+04      0.1639767208E+04
          0                 4           4            56   80     1       0.2434867479E-02      18   14    1        -0.3539849558E+02      0.4855407107E+02

    ------------------------------------------------
       NWT REQUIRED            4 OUTER ITERATIONS 
       AND A TOTAL OF         29 INNER ITERATIONS.
    ------------------------------------------------

 NO OUTPUT CONTROL FOR STRESS PERIOD   55   TIME STEP   11

 INTERPOLATION FOR HEAD OBS# 1657, ID 2303-55-355  CHANGED BECAUSE AT LEAST ONE
 NEIGHBORING CELL REQUIRED FOR INTERPOLATION IS DRY OR INACTIVE (OBS2BAS7SE)

 INTERPOLATION FOR HEAD OBS# 2183, ID 2355-55-343  CHANGED BECAUSE AT LEAST ONE
 NEIGHBORING CELL REQUIRED FOR INTERPOLATION IS DRY OR INACTIVE (OBS2BAS7SE)
 
 SOLVING FOR HEAD 
                                                   Max.-Head-Change                         Max.-Flux-Residual
  Residual-Control   Outer-Iter.   Inner-Iter.     Column Row Layer    Maximum-Head-Change  Column Row Layer    Maximum-Flux-Residual          L2-NORM 
          0                 1          10            81   45     1      -0.2266000736E+01      92   52    1        -0.7373561801E+05      0.5314718195E+06
          0                 2           9            72   15     2       0.4332505496E+00      58   61    2         0.1745657677E+05      0.6047035175E+05
          0                 3           5            71   56     1      -0.5046516120E-01      71   56    1        -0.1373575541E+04      0.1386736580E+04
          0                 4           4            71   56     1      -0.4547684865E-02      71   56    1        -0.1237424150E+03      0.1314081751E+03

    ------------------------------------------------
       NWT REQUIRED            4 OUTER ITERATIONS 
       AND A TOTAL OF         28 INNER ITERATIONS.
    ------------------------------------------------

 OUTPUT CONTROL FOR STRESS PERIOD   55   TIME STEP   12
    SAVE BUDGET
 UBDSV1 SAVING "         STORAGE" ON UNIT  39 AT TIME STEP 12, STRESS PERIOD  55
 UBDSV2 SAVING "   CONSTANT HEAD" ON UNIT  39 AT TIME STEP 12, STRESS PERIOD  55
 UBDSV1 SAVING "FLOW RIGHT FACE " ON UNIT  39 AT TIME STEP 12, STRESS PERIOD  55
 UBDSV1 SAVING "FLOW FRONT FACE " ON UNIT  39 AT TIME STEP 12, STRESS PERIOD  55
 UBDSV1 SAVING "FLOW LOWER FACE " ON UNIT  39 AT TIME STEP 12, STRESS PERIOD  55
 UBDSV4 SAVING "           WELLS" ON UNIT  39 AT TIME STEP 12, STRESS PERIOD  55
 UBDSV3 SAVING "              ET" ON UNIT  39 AT TIME STEP 12, STRESS PERIOD  55
 UBDSV3 SAVING "        RECHARGE" ON UNIT  39 AT TIME STEP 12, STRESS PERIOD  55

 INTERPOLATION FOR HEAD OBS#  170, ID 3368-56-25   CHANGED BECAUSE AT LEAST ONE
 NEIGHBORING CELL REQUIRED FOR INTERPOLATION IS DRY OR INACTIVE (OBS2BAS7SE)

 INTERPOLATION FOR HEAD OBS#  197, ID 3228-56-20   CHANGED BECAUSE AT LEAST ONE
 NEIGHBORING CELL REQUIRED FOR INTERPOLATION IS DRY OR INACTIVE (OBS2BAS7SE)

 INTERPOLATION FOR HEAD OBS#  254, ID 3260-56-26   CHANGED BECAUSE AT LEAST ONE
 NEIGHBORING CELL REQUIRED FOR INTERPOLATION IS DRY OR INACTIVE (OBS2BAS7SE)

 INTERPOLATION FOR HEAD OBS#  638, ID 3014-56-24   CHANGED BECAUSE AT LEAST ONE
 NEIGHBORING CELL REQUIRED FOR INTERPOLATION IS DRY OR INACTIVE (OBS2BAS7SE)

 INTERPOLATION FOR HEAD OBS#  651, ID 3055-56-19   CHANGED BECAUSE AT LEAST ONE
 NEIGHBORING CELL REQUIRED FOR INTERPOLATION IS DRY OR INACTIVE (OBS2BAS7SE)

 INTERPOLATION FOR HEAD OBS#  775, ID 3008-56-26   CHANGED BECAUSE AT LEAST ONE
 NEIGHBORING CELL REQUIRED FOR INTERPOLATION IS DRY OR INACTIVE (OBS2BAS7SE)

 INTERPOLATION FOR HEAD OBS# 1335, ID 2852-56-19   CHANGED BECAUSE AT LEAST ONE
 NEIGHBORING CELL REQUIRED FOR INTERPOLATION IS DRY OR INACTIVE (OBS2BAS7SE)

 INTERPOLATION FOR HEAD OBS# 1340, ID 2869-56-24   CHANGED BECAUSE AT LEAST ONE
 NEIGHBORING CELL REQUIRED FOR INTERPOLATION IS DRY OR INACTIVE (OBS2BAS7SE)

 INTERPOLATION FOR HEAD OBS# 1403, ID 2840-56-19   CHANGED BECAUSE AT LEAST ONE
 NEIGHBORING CELL REQUIRED FOR INTERPOLATION IS DRY OR INACTIVE (OBS2BAS7SE)

 INTERPOLATION FOR HEAD OBS# 1742, ID 2618-56-23   CHANGED BECAUSE AT LEAST ONE
 NEIGHBORING CELL REQUIRED FOR INTERPOLATION IS DRY OR INACTIVE (OBS2BAS7SE)

 INTERPOLATION FOR HEAD OBS# 1834, ID 1908-56-18   CHANGED BECAUSE AT LEAST ONE
 NEIGHBORING CELL REQUIRED FOR INTERPOLATION IS DRY OR INACTIVE (OBS2BAS7SE)

 INTERPOLATION FOR HEAD OBS# 1868, ID 2606-56-26   CHANGED BECAUSE AT LEAST ONE
 NEIGHBORING CELL REQUIRED FOR INTERPOLATION IS DRY OR INACTIVE (OBS2BAS7SE)

 INTERPOLATION FOR HEAD OBS# 2526, ID 2243-56-25   CHANGED BECAUSE AT LEAST ONE
 NEIGHBORING CELL REQUIRED FOR INTERPOLATION IS DRY OR INACTIVE (OBS2BAS7SE)

 INTERPOLATION FOR HEAD OBS# 3200, ID 2443-56-20   CHANGED BECAUSE AT LEAST ONE
 NEIGHBORING CELL REQUIRED FOR INTERPOLATION IS DRY OR INACTIVE (OBS2BAS7SE)

 INTERPOLATION FOR HEAD OBS# 5404, ID 1705-56-16   CHANGED BECAUSE AT LEAST ONE
 NEIGHBORING CELL REQUIRED FOR INTERPOLATION IS DRY OR INACTIVE (OBS2BAS7SE)

 INTERPOLATION FOR HEAD OBS# 5408, ID 1530-56-16   CHANGED BECAUSE AT LEAST ONE
 NEIGHBORING CELL REQUIRED FOR INTERPOLATION IS DRY OR INACTIVE (OBS2BAS7SE)

 INTERPOLATION FOR HEAD OBS# 6247, ID 1164-56-17   CHANGED BECAUSE AT LEAST ONE
 NEIGHBORING CELL REQUIRED FOR INTERPOLATION IS DRY OR INACTIVE (OBS2BAS7SE)

 INTERPOLATION FOR HEAD OBS# 7381, ID 451-56-17    CHANGED BECAUSE AT LEAST ONE
 NEIGHBORING CELL REQUIRED FOR INTERPOLATION IS DRY OR INACTIVE (OBS2BAS7SE)

 INTERPOLATION FOR HEAD OBS# 7534, ID 269-56-10    CHANGED BECAUSE AT LEAST ONE
 NEIGHBORING CELL REQUIRED FOR INTERPOLATION IS DRY OR INACTIVE (OBS2BAS7SE)

 INTERPOLATION FOR HEAD OBS# 7564, ID 230-56-10    CHANGED BECAUSE AT LEAST ONE
 NEIGHBORING CELL REQUIRED FOR INTERPOLATION IS DRY OR INACTIVE (OBS2BAS7SE)

 INTERPOLATION FOR HEAD OBS# 7783, ID 178-56-11    CHANGED BECAUSE AT LEAST ONE
 NEIGHBORING CELL REQUIRED FOR INTERPOLATION IS DRY OR INACTIVE (OBS2BAS7SE)
1
  VOLUMETRIC BUDGET FOR ENTIRE MODEL AT END OF TIME STEP   12, STRESS PERIOD  55
  ------------------------------------------------------------------------------

     CUMULATIVE VOLUMES      L**3       RATES FOR THIS TIME STEP      L**3/T
     ------------------                 ------------------------

           IN:                                      IN:
           ---                                      ---
             STORAGE =350769315840.0000               STORAGE =    19000064.0000
       CONSTANT HEAD = 35104206848.0000         CONSTANT HEAD =     2616269.7500
               WELLS = 24621426688.0000                 WELLS =     1225642.0000
                  ET =           0.0000                    ET =           0.0000
            RECHARGE =414391304192.0000              RECHARGE =    17889016.0000

            TOTAL IN =824886231040.0000              TOTAL IN =    40730992.0000

          OUT:                                     OUT:
          ----                                     ----
             STORAGE = 80423133184.0000               STORAGE =     2132454.2500
       CONSTANT HEAD = 64239706112.0000         CONSTANT HEAD =     2269717.0000
               WELLS =659346227200.0000                 WELLS =    35104984.0000
                  ET = 20876957696.0000                    ET =     1223877.3750
            RECHARGE =           0.0000              RECHARGE =           0.0000

           TOTAL OUT =824886034432.0000             TOTAL OUT =    40731032.0000

            IN - OUT =      196608.0000              IN - OUT =         -40.0000

 PERCENT DISCREPANCY =           0.00     PERCENT DISCREPANCY =          -0.00






         TIME SUMMARY AT END OF TIME STEP   12 IN STRESS PERIOD   55
                    SECONDS     MINUTES      HOURS       DAYS        YEARS
                    -----------------------------------------------------------
   TIME STEP LENGTH 2.62800E+06  43800.      730.00      30.417     8.32763E-02
 STRESS PERIOD TIME 3.15360E+07 5.25600E+05  8760.0      365.00     0.99932    
         TOTAL TIME 1.73569E+09 2.89281E+07 4.82136E+05  20089.      55.001    
1
1
                            STRESS PERIOD NO.   56, LENGTH =   365.0000    
                            -----------------------------------------------

                              NUMBER OF TIME STEPS =    12

                               MULTIPLIER FOR DELT =     1.000

                            INITIAL TIME STEP SIZE =   30.41667    

   1714 WELLS

 REUSING SURF FROM LAST STRESS PERIOD

 REUSING EVTR FROM LAST STRESS PERIOD

 REUSING EXDP FROM LAST STRESS PERIOD



                           RECHARGE
 READING ON UNIT   16 WITH FORMAT: (15F5.0)            


     63 TIME-VARIANT SPECIFIED-HEAD CELLS
 
 SOLVING FOR HEAD 
                                                   Max.-Head-Change                         Max.-Flux-Residual
  Residual-Control   Outer-Iter.   Inner-Iter.     Column Row Layer    Maximum-Head-Change  Column Row Layer    Maximum-Flux-Residual          L2-NORM 
          0                 1          11            84   50     3       0.8718713263E+02      54   47    2        -0.4112082353E+06      0.1072858187E+07
          0                 2           9            84   56     3       0.8264519898E+01      61   62    2         0.1682886161E+06      0.2149209919E+06
          0                 3           6            55   99     3      -0.1253422760E+01      55   99    3        -0.3247074489E+05      0.3273966389E+05
          0                 4           4            55   99     3       0.1030544131E+01      55   99    3         0.2928550416E+05      0.2928698998E+05
          0                 5           3            55   99     3      -0.6427213607E+00      55   99    3        -0.2003808229E+05      0.2003832912E+05
          0                 6           3            55   99     3       0.3688152079E+00      55   99    3         0.1258450968E+05      0.1258485576E+05
          0                 7           2            55   99     3      -0.1468381454E+00      55   99    3        -0.5481048395E+04      0.5481375967E+04
          0                 8           2            55   99     3       0.4763866652E-01      55   99    3         0.1940907807E+04      0.1941093483E+04
          0                 9           2            55   99     3      -0.9792810156E-02      55   99    3        -0.4351851810E+03      0.4352570096E+03

    ------------------------------------------------
       NWT REQUIRED            9 OUTER ITERATIONS 
       AND A TOTAL OF         42 INNER ITERATIONS.
    ------------------------------------------------

 NO OUTPUT CONTROL FOR STRESS PERIOD   56   TIME STEP    1

 INTERPOLATION FOR HEAD OBS# 3613, ID 1370-56-31   CHANGED BECAUSE AT LEAST ONE
 NEIGHBORING CELL REQUIRED FOR INTERPOLATION IS DRY OR INACTIVE (OBS2BAS7SE)

 INTERPOLATION FOR HEAD OBS# 3702, ID 1479-56-34   CHANGED BECAUSE AT LEAST ONE
 NEIGHBORING CELL REQUIRED FOR INTERPOLATION IS DRY OR INACTIVE (OBS2BAS7SE)

 INTERPOLATION FOR HEAD OBS# 3759, ID 1427-56-33   CHANGED BECAUSE AT LEAST ONE
 NEIGHBORING CELL REQUIRED FOR INTERPOLATION IS DRY OR INACTIVE (OBS2BAS7SE)

 INTERPOLATION FOR HEAD OBS# 3776, ID 1405-56-33   CHANGED BECAUSE AT LEAST ONE
 NEIGHBORING CELL REQUIRED FOR INTERPOLATION IS DRY OR INACTIVE (OBS2BAS7SE)
 
 SOLVING FOR HEAD 
                                                   Max.-Head-Change                         Max.-Flux-Residual
  Residual-Control   Outer-Iter.   Inner-Iter.     Column Row Layer    Maximum-Head-Change  Column Row Layer    Maximum-Flux-Residual          L2-NORM 
          0                 1          10            84   56     3      -0.1674013623E+02      60   62    2        -0.2306780805E+06      0.7069489715E+06
          0                 2           9            84   56     3       0.1521089432E+01      60   62    2         0.2251724464E+05      0.7392233663E+05
          0                 3           6            55   99     3      -0.4616302045E+00      55   99    3        -0.1194941617E+05      0.1205546077E+05
          0                 4           3            55   99     3       0.3451623155E+00      55   99    3         0.9804936097E+04      0.9805004587E+04
          0                 5           3            55   99     3      -0.1978225098E+00      55   99    3        -0.6162784355E+04      0.6162925068E+04
          0                 6           2            55   99     3       0.9432611564E-01      55   99    3         0.3217108510E+04      0.3217293459E+04
          0                 7           2            55   99     3      -0.3168533343E-01      55   99    3        -0.1181933580E+04      0.1182101305E+04
          0                 8           2            55   99     3       0.7639831098E-02      55   99    3         0.3111054624E+03      0.3112036982E+03

    ------------------------------------------------
       NWT REQUIRED            8 OUTER ITERATIONS 
       AND A TOTAL OF         37 INNER ITERATIONS.
    ------------------------------------------------

 NO OUTPUT CONTROL FOR STRESS PERIOD   56   TIME STEP    2
 
 SOLVING FOR HEAD 
                                                   Max.-Head-Change                         Max.-Flux-Residual
  Residual-Control   Outer-Iter.   Inner-Iter.     Column Row Layer    Maximum-Head-Change  Column Row Layer    Maximum-Flux-Residual          L2-NORM 
          0                 1          10            81   55     3      -0.5220728467E+01      60   62    2        -0.1638223755E+06      0.6227779663E+06
          0                 2           9            81   52     1      -0.1603281584E+01      54   47    2         0.2516873598E+05      0.6805912869E+05
          0                 3           5            55   99     3      -0.1963333738E+00      55   99    3        -0.5079246410E+04      0.5116979093E+04
          0                 4           2            55   99     3       0.1355127357E+00      55   99    3         0.3847848583E+04      0.3847921287E+04
          0                 5           2            55   99     3      -0.7220753841E-01      55   99    3        -0.2248242830E+04      0.2248321755E+04
          0                 6           2            55   99     3       0.3042506667E-01      55   99    3         0.1037224064E+04      0.1037286624E+04
          0                 7           2            55   99     3      -0.9036943004E-02      55   99    3        -0.3369196668E+03      0.3369547407E+03

    ------------------------------------------------
       NWT REQUIRED            7 OUTER ITERATIONS 
       AND A TOTAL OF         32 INNER ITERATIONS.
    ------------------------------------------------

 NO OUTPUT CONTROL FOR STRESS PERIOD   56   TIME STEP    3
 
 SOLVING FOR HEAD 
                                                   Max.-Head-Change                         Max.-Flux-Residual
  Residual-Control   Outer-Iter.   Inner-Iter.     Column Row Layer    Maximum-Head-Change  Column Row Layer    Maximum-Flux-Residual          L2-NORM 
          0                 1          10            56   99     3       0.3785040266E+01      60   62    2        -0.1246478487E+06      0.5727181805E+06
          0                 2           9            70   19     1      -0.4988009041E+00      60   62    2         0.1228218147E+05      0.5976716641E+05
          0                 3           5            55   99     3      -0.9114598317E-01      55   99    3        -0.2356881642E+04      0.2394587753E+04
          0                 4           2            55   99     3       0.5973515222E-01      55   99    3         0.1695472647E+04      0.1695538992E+04
          0                 5           2            55   99     3      -0.3036208662E-01      55   99    3        -0.9449111185E+03      0.9449755078E+03
          0                 6           2            55   99     3       0.1187195083E-01      55   99    3         0.4045595592E+03      0.4046055784E+03
          0                 7           1            55   99     3      -0.3254507693E-02      55   99    3        -0.1212804975E+03      0.1213041480E+03

    ------------------------------------------------
       NWT REQUIRED            7 OUTER ITERATIONS 
       AND A TOTAL OF         31 INNER ITERATIONS.
    ------------------------------------------------

 NO OUTPUT CONTROL FOR STRESS PERIOD   56   TIME STEP    4
 
 SOLVING FOR HEAD 
                                                   Max.-Head-Change                         Max.-Flux-Residual
  Residual-Control   Outer-Iter.   Inner-Iter.     Column Row Layer    Maximum-Head-Change  Column Row Layer    Maximum-Flux-Residual          L2-NORM 
          0                 1          10            56   99     3       0.3340268383E+01      60   62    2        -0.1007081497E+06      0.5415467047E+06
          0                 2           9            66   43     2      -0.1998720354E+01      61   63    2         0.1529994628E+05      0.5721934093E+05
          0                 3           6            71   55     1      -0.9903304943E-01      71   55    1        -0.2669931509E+04      0.3142326470E+04
          0                 4           4            55   99     3       0.2936972504E-01      55   99    3         0.8332888165E+03      0.8674102642E+03
          0                 5           3            55   99     3      -0.1452288109E-01      55   99    3        -0.4517891060E+03      0.4523358245E+03
          0                 6           2            55   99     3       0.5445039876E-02      55   99    3         0.1854790039E+03      0.1855105643E+03

    ------------------------------------------------
       NWT REQUIRED            6 OUTER ITERATIONS 
       AND A TOTAL OF         34 INNER ITERATIONS.
    ------------------------------------------------

 NO OUTPUT CONTROL FOR STRESS PERIOD   56   TIME STEP    5
 
 SOLVING FOR HEAD 
                                                   Max.-Head-Change                         Max.-Flux-Residual
  Residual-Control   Outer-Iter.   Inner-Iter.     Column Row Layer    Maximum-Head-Change  Column Row Layer    Maximum-Flux-Residual          L2-NORM 
          0                 1          10            56   99     3       0.2954361376E+01      60   62    2        -0.8535655998E+05      0.5203170704E+06
          0                 2           9            71   55     1      -0.1353506211E+01      60   62    2         0.8443155476E+04      0.5363274170E+05
          0                 3           5            55   80     2      -0.3224433959E+00      55   80    2        -0.9236246306E+04      0.9306801357E+04
          0                 4           3            55   80     1      -0.3013557901E-01      55   80    2        -0.8321077466E+03      0.9526628206E+03
          0                 5           2            55   99     3      -0.7960479848E-02      55   99    3        -0.2475515684E+03      0.2586169395E+03

    ------------------------------------------------
       NWT REQUIRED            5 OUTER ITERATIONS 
       AND A TOTAL OF         29 INNER ITERATIONS.
    ------------------------------------------------

 NO OUTPUT CONTROL FOR STRESS PERIOD   56   TIME STEP    6
 
 SOLVING FOR HEAD 
                                                   Max.-Head-Change                         Max.-Flux-Residual
  Residual-Control   Outer-Iter.   Inner-Iter.     Column Row Layer    Maximum-Head-Change  Column Row Layer    Maximum-Flux-Residual          L2-NORM 
          0                 1          10            56   99     3       0.2616864673E+01      60   62    2        -0.7486268929E+05      0.5050818919E+06
          0                 2           9            55   80     2      -0.9521566181E+01      60   71    2         0.1880664169E+05      0.5489695905E+05
          0                 3           5            55   80     1      -0.2601823598E+00      55   99    3        -0.3525859628E+03      0.5501391868E+03
          0                 4           2            55   99     3       0.8441419738E-02      55   99    3         0.2393454443E+03      0.2417539366E+03

    ------------------------------------------------
       NWT REQUIRED            4 OUTER ITERATIONS 
       AND A TOTAL OF         26 INNER ITERATIONS.
    ------------------------------------------------

 NO OUTPUT CONTROL FOR STRESS PERIOD   56   TIME STEP    7
 
 SOLVING FOR HEAD 
                                                   Max.-Head-Change                         Max.-Flux-Residual
  Residual-Control   Outer-Iter.   Inner-Iter.     Column Row Layer    Maximum-Head-Change  Column Row Layer    Maximum-Flux-Residual          L2-NORM 
          0                 1          10            56   99     3       0.2320893920E+01      91   67    1         0.7022070364E+05      0.4931202718E+06
          0                 2           9            24   83     2      -0.7962363970E+00      59   61    1        -0.2212268344E+05      0.5529515903E+05
          0                 3           5            59   61     1       0.3697837246E-01      59   61    1         0.2190834970E+04      0.2334177284E+04
          0                 4           2            55   99     3       0.6682318087E-02      55   99    3         0.1894149195E+03      0.1900283891E+03

    ------------------------------------------------
       NWT REQUIRED            4 OUTER ITERATIONS 
       AND A TOTAL OF         26 INNER ITERATIONS.
    ------------------------------------------------

 NO OUTPUT CONTROL FOR STRESS PERIOD   56   TIME STEP    8
 
 SOLVING FOR HEAD 
                                                   Max.-Head-Change                         Max.-Flux-Residual
  Residual-Control   Outer-Iter.   Inner-Iter.     Column Row Layer    Maximum-Head-Change  Column Row Layer    Maximum-Flux-Residual          L2-NORM 
          0                 1          10            56   99     3       0.2060102916E+01      91   67    1         0.6797368956E+05      0.4826126413E+06
          0                 2           9            72   15     1      -0.1489995522E+01      60   60    1        -0.1322694277E+05      0.5161937566E+05
          0                 3           5            72   15     1       0.1284472703E+00      60   60    1         0.1301214749E+04      0.1606354926E+04
          0                 4           2            55   99     3       0.5479467296E-02      55   99    3         0.1552801802E+03      0.1566982839E+03

    ------------------------------------------------
       NWT REQUIRED            4 OUTER ITERATIONS 
       AND A TOTAL OF         26 INNER ITERATIONS.
    ------------------------------------------------

 NO OUTPUT CONTROL FOR STRESS PERIOD   56   TIME STEP    9
 
 SOLVING FOR HEAD 
                                                   Max.-Head-Change                         Max.-Flux-Residual
  Residual-Control   Outer-Iter.   Inner-Iter.     Column Row Layer    Maximum-Head-Change  Column Row Layer    Maximum-Flux-Residual          L2-NORM 
          0                 1          10            56   99     3       0.1829514494E+01      91   67    1         0.6585683985E+05      0.4745147933E+06
          0                 2           9            56   99     3      -0.1641354369E+00      59  102    2         0.8746147629E+04      0.4831750221E+05
          0                 3           5            55   99     3      -0.7603169108E-02      55   99    3        -0.1962372927E+03      0.2852912789E+03

    ------------------------------------------------
       NWT REQUIRED            3 OUTER ITERATIONS 
       AND A TOTAL OF         24 INNER ITERATIONS.
    ------------------------------------------------

 NO OUTPUT CONTROL FOR STRESS PERIOD   56   TIME STEP   10
 
 SOLVING FOR HEAD 
                                                   Max.-Head-Change                         Max.-Flux-Residual
  Residual-Control   Outer-Iter.   Inner-Iter.     Column Row Layer    Maximum-Head-Change  Column Row Layer    Maximum-Flux-Residual          L2-NORM 
          0                 1          10            91   67     1       0.1749961864E+01      91   67    1         0.6386175639E+05      0.4681960258E+06
          0                 2           9            61   64     2       0.3163720762E+00      61   64    2         0.1607324617E+05      0.5079842648E+05
          0                 3           5            55   99     3      -0.3579434902E-02      55   99    3        -0.9236468088E+02      0.1047205672E+03

    ------------------------------------------------
       NWT REQUIRED            3 OUTER ITERATIONS 
       AND A TOTAL OF         24 INNER ITERATIONS.
    ------------------------------------------------

 NO OUTPUT CONTROL FOR STRESS PERIOD   56   TIME STEP   11
 
 SOLVING FOR HEAD 
                                                   Max.-Head-Change                         Max.-Flux-Residual
  Residual-Control   Outer-Iter.   Inner-Iter.     Column Row Layer    Maximum-Head-Change  Column Row Layer    Maximum-Flux-Residual          L2-NORM 
          0                 1          10            91   67     1       0.1699966582E+01      91   67    1         0.6198295170E+05      0.4615027231E+06
          0                 2           9            61   64     1      -0.2648104186E+00      61   57    2         0.1417384017E+05      0.5353183727E+05
          0                 3           5            63  106     1      -0.2741580538E-01      58   62    1        -0.1426647885E+04      0.2177634674E+04
          0                 4           3            63  106     1      -0.2469486886E-02      58   62    1        -0.1284476497E+03      0.1815911865E+03

    ------------------------------------------------
       NWT REQUIRED            4 OUTER ITERATIONS 
       AND A TOTAL OF         27 INNER ITERATIONS.
    ------------------------------------------------

 OUTPUT CONTROL FOR STRESS PERIOD   56   TIME STEP   12
    SAVE BUDGET
    SAVE HEAD FOR LAYERS:   1  2  3
 UBDSV1 SAVING "         STORAGE" ON UNIT  39 AT TIME STEP 12, STRESS PERIOD  56
 UBDSV2 SAVING "   CONSTANT HEAD" ON UNIT  39 AT TIME STEP 12, STRESS PERIOD  56
 UBDSV1 SAVING "FLOW RIGHT FACE " ON UNIT  39 AT TIME STEP 12, STRESS PERIOD  56
 UBDSV1 SAVING "FLOW FRONT FACE " ON UNIT  39 AT TIME STEP 12, STRESS PERIOD  56
 UBDSV1 SAVING "FLOW LOWER FACE " ON UNIT  39 AT TIME STEP 12, STRESS PERIOD  56
 UBDSV4 SAVING "           WELLS" ON UNIT  39 AT TIME STEP 12, STRESS PERIOD  56
 UBDSV3 SAVING "              ET" ON UNIT  39 AT TIME STEP 12, STRESS PERIOD  56
 UBDSV3 SAVING "        RECHARGE" ON UNIT  39 AT TIME STEP 12, STRESS PERIOD  56

 HEAD WILL BE SAVED ON UNIT   31 AT END OF TIME STEP   12, STRESS PERIOD   56
1
  VOLUMETRIC BUDGET FOR ENTIRE MODEL AT END OF TIME STEP   12, STRESS PERIOD  56
  ------------------------------------------------------------------------------

     CUMULATIVE VOLUMES      L**3       RATES FOR THIS TIME STEP      L**3/T
     ------------------                 ------------------------

           IN:                                      IN:
           ---                                      ---
             STORAGE =357707874304.0000               STORAGE =    18298410.0000
       CONSTANT HEAD = 36063076352.0000         CONSTANT HEAD =     2619344.7500
               WELLS = 25068783616.0000                 WELLS =     1225642.0000
                  ET =           0.0000                    ET =           0.0000
            RECHARGE =422038568960.0000              RECHARGE =    20951054.0000

            TOTAL IN =840878325760.0000              TOTAL IN =    43094448.0000

          OUT:                                     OUT:
          ----                                     ----
             STORAGE = 81624006656.0000               STORAGE =     2582068.5000
       CONSTANT HEAD = 65058050048.0000         CONSTANT HEAD =     2227932.0000
               WELLS =672857063424.0000                 WELLS =    37013604.0000
                  ET = 21338822656.0000                    ET =     1270886.1250
            RECHARGE =           0.0000              RECHARGE =           0.0000

           TOTAL OUT =840877998080.0000             TOTAL OUT =    43094492.0000

            IN - OUT =      327680.0000              IN - OUT =         -44.0000

 PERCENT DISCREPANCY =           0.00     PERCENT DISCREPANCY =          -0.00






         TIME SUMMARY AT END OF TIME STEP   12 IN STRESS PERIOD   56
                    SECONDS     MINUTES      HOURS       DAYS        YEARS
                    -----------------------------------------------------------
   TIME STEP LENGTH 2.62800E+06  43800.      730.00      30.417     8.32763E-02
 STRESS PERIOD TIME 3.15360E+07 5.25600E+05  8760.0      365.00     0.99932    
         TOTAL TIME 1.76722E+09 2.94537E+07 4.90896E+05  20454.      56.000    
1
1
                            STRESS PERIOD NO.   57, LENGTH =   366.0000    
                            -----------------------------------------------

                              NUMBER OF TIME STEPS =    12

                               MULTIPLIER FOR DELT =     1.000

                            INITIAL TIME STEP SIZE =   30.50000    

   1717 WELLS

 REUSING SURF FROM LAST STRESS PERIOD

 REUSING EVTR FROM LAST STRESS PERIOD

 REUSING EXDP FROM LAST STRESS PERIOD



                           RECHARGE
 READING ON UNIT   16 WITH FORMAT: (15F5.0)            


     63 TIME-VARIANT SPECIFIED-HEAD CELLS
 
 SOLVING FOR HEAD 
                                                   Max.-Head-Change                         Max.-Flux-Residual
  Residual-Control   Outer-Iter.   Inner-Iter.     Column Row Layer    Maximum-Head-Change  Column Row Layer    Maximum-Flux-Residual          L2-NORM 
          0                 1          11            87   54     3      -0.3756506068E+02      54   47    2         0.3279830936E+06      0.1158582207E+07
          0                 2          10            87   54     3       0.3787676457E+01      24   22    1        -0.6348375291E+05      0.1486476496E+06
          0                 3           7            23   48     2      -0.1546128158E+00      23   48    2        -0.3764635542E+04      0.5225994394E+04
          0                 4           6            55  100     3       0.7039815125E-01      55  100    3         0.2055626025E+04      0.2114991985E+04
          0                 5           5            55  100     3      -0.4163665444E-01      55  100    3        -0.1332920286E+04      0.1343917260E+04
          0                 6           3            55  100     3       0.1940877318E-01      55  100    3         0.6802836246E+03      0.6826487569E+03
          0                 7           2            55  100     3      -0.6649036865E-02      55  100    3        -0.2548333378E+03      0.2551404193E+03

    ------------------------------------------------
       NWT REQUIRED            7 OUTER ITERATIONS 
       AND A TOTAL OF         44 INNER ITERATIONS.
    ------------------------------------------------

 NO OUTPUT CONTROL FOR STRESS PERIOD   57   TIME STEP    1
 
 SOLVING FOR HEAD 
                                                   Max.-Head-Change                         Max.-Flux-Residual
  Residual-Control   Outer-Iter.   Inner-Iter.     Column Row Layer    Maximum-Head-Change  Column Row Layer    Maximum-Flux-Residual          L2-NORM 
          0                 1          10            56   99     3       0.7024355765E+01      56   99    3         0.1674116684E+06      0.8806941481E+06
          0                 2           9            23   48     2      -0.2091918343E+01      59   62    2         0.2924955647E+05      0.9797606977E+05
          0                 3           7            23   48     2       0.1837312139E+00      58   64    1        -0.2922179595E+04      0.3450773178E+04
          0                 4           4            55  100     3       0.3157364270E-01      55  100    3         0.9218443759E+03      0.9794389860E+03
          0                 5           3            55  100     3      -0.1840654698E-01      55  100    3        -0.5891633508E+03      0.5966415359E+03
          0                 6           2            55  100     3       0.8375695384E-02      55  100    3         0.2935291247E+03      0.2951821676E+03

    ------------------------------------------------
       NWT REQUIRED            6 OUTER ITERATIONS 
       AND A TOTAL OF         35 INNER ITERATIONS.
    ------------------------------------------------

 NO OUTPUT CONTROL FOR STRESS PERIOD   57   TIME STEP    2
 
 SOLVING FOR HEAD 
                                                   Max.-Head-Change                         Max.-Flux-Residual
  Residual-Control   Outer-Iter.   Inner-Iter.     Column Row Layer    Maximum-Head-Change  Column Row Layer    Maximum-Flux-Residual          L2-NORM 
          0                 1          11            56   99     3       0.6160836197E+01      56   99    3         0.1462177498E+06      0.7888524657E+06
          0                 2           9            79   70     1      -0.1644067802E+01      59   62    1        -0.2988805786E+05      0.8704458711E+05
          0                 3           6            79   70     1       0.1380751697E+00      59   62    1         0.2959755328E+04      0.3993617194E+04
          0                 4           4            55  100     3       0.1789150644E-01      55  100    3         0.5222216509E+03      0.5465090609E+03
          0                 5           3            55  100     3      -0.1036238994E-01      55  100    3        -0.3315915994E+03      0.3348532052E+03
          0                 6           2            55  100     3       0.4666518011E-02      55  100    3         0.1634985153E+03      0.1642410770E+03

    ------------------------------------------------
       NWT REQUIRED            6 OUTER ITERATIONS 
       AND A TOTAL OF         35 INNER ITERATIONS.
    ------------------------------------------------

 NO OUTPUT CONTROL FOR STRESS PERIOD   57   TIME STEP    3
 
 SOLVING FOR HEAD 
                                                   Max.-Head-Change                         Max.-Flux-Residual
  Residual-Control   Outer-Iter.   Inner-Iter.     Column Row Layer    Maximum-Head-Change  Column Row Layer    Maximum-Flux-Residual          L2-NORM 
          0                 1          11            56   99     3       0.5420241262E+01      56   99    3         0.1282506330E+06      0.7370332300E+06
          0                 2           9            68   52     1      -0.1269492665E+01      88   51    1         0.1484052852E+05      0.7958363965E+05
          0                 3           6            68   52     1       0.1114577940E+00      68   52    1         0.1063976209E+04      0.1692599350E+04
          0                 4           4            55  100     3       0.1108531185E-01      55  100    3         0.3234359469E+03      0.3283977893E+03
          0                 5           3            55  100     3      -0.6393400181E-02      55  100    3        -0.2045138719E+03      0.2053750245E+03

    ------------------------------------------------
       NWT REQUIRED            5 OUTER ITERATIONS 
       AND A TOTAL OF         33 INNER ITERATIONS.
    ------------------------------------------------

 NO OUTPUT CONTROL FOR STRESS PERIOD   57   TIME STEP    4
 
 SOLVING FOR HEAD 
                                                   Max.-Head-Change                         Max.-Flux-Residual
  Residual-Control   Outer-Iter.   Inner-Iter.     Column Row Layer    Maximum-Head-Change  Column Row Layer    Maximum-Flux-Residual          L2-NORM 
          0                 1          11            56   99     3       0.4789979239E+01      56   99    3         0.1129140696E+06      0.7017504315E+06
          0                 2           9            56   99     3      -0.4322770809E+00      56   99    3        -0.1134009989E+05      0.7104108031E+05
          0                 3           5            26   20     1       0.8137570795E-02      26   20    1         0.4414150432E+03      0.5338652234E+03

    ------------------------------------------------
       NWT REQUIRED            3 OUTER ITERATIONS 
       AND A TOTAL OF         25 INNER ITERATIONS.
    ------------------------------------------------

 NO OUTPUT CONTROL FOR STRESS PERIOD   57   TIME STEP    5
 
 SOLVING FOR HEAD 
                                                   Max.-Head-Change                         Max.-Flux-Residual
  Residual-Control   Outer-Iter.   Inner-Iter.     Column Row Layer    Maximum-Head-Change  Column Row Layer    Maximum-Flux-Residual          L2-NORM 
          0                 1          11            56   99     3       0.4240579752E+01      56   99    3         0.9972517538E+05      0.6748830202E+06
          0                 2           9            73   58     1      -0.7959432981E+00      58   42    2         0.1195822936E+05      0.6906492424E+05
          0                 3           5            73   58     1       0.6770259580E-01      26   21    1         0.3309823944E+03      0.4908580977E+03
          0                 4           2            55  100     3       0.1883355947E-02      55  100    3         0.5487784669E+02      0.5647888359E+02

    ------------------------------------------------
       NWT REQUIRED            4 OUTER ITERATIONS 
       AND A TOTAL OF         27 INNER ITERATIONS.
    ------------------------------------------------

 NO OUTPUT CONTROL FOR STRESS PERIOD   57   TIME STEP    6
 
 SOLVING FOR HEAD 
                                                   Max.-Head-Change                         Max.-Flux-Residual
  Residual-Control   Outer-Iter.   Inner-Iter.     Column Row Layer    Maximum-Head-Change  Column Row Layer    Maximum-Flux-Residual          L2-NORM 
          0                 1          10            56   99     3       0.3761784089E+01      56   99    3         0.8829281123E+05      0.6525135091E+06
          0                 2           9            56   99     3      -0.3393301367E+00      62   86    2         0.1131169235E+05      0.6639715725E+05
          0                 3           5            60   98     1       0.1284084111E-01      60   98    1         0.4858217626E+03      0.5631600306E+03
          0                 4           3            55  100     3       0.3098050329E-02      55  100    3         0.9024624712E+02      0.9445898094E+02

    ------------------------------------------------
       NWT REQUIRED            4 OUTER ITERATIONS 
       AND A TOTAL OF         27 INNER ITERATIONS.
    ------------------------------------------------

 NO OUTPUT CONTROL FOR STRESS PERIOD   57   TIME STEP    7
 
 SOLVING FOR HEAD 
                                                   Max.-Head-Change                         Max.-Flux-Residual
  Residual-Control   Outer-Iter.   Inner-Iter.     Column Row Layer    Maximum-Head-Change  Column Row Layer    Maximum-Flux-Residual          L2-NORM 
          0                 1          10            56   99     3       0.3342662147E+01      81   46    1        -0.8163164082E+05      0.6342530447E+06
          0                 2           9            59   96     2      -0.1829258040E+01      59   96    2        -0.1214233574E+05      0.6538653553E+05
          0                 3           6            59   96     2       0.2166902087E+00      59   96    2         0.1870444024E+04      0.2189917214E+04
          0                 4           3            55  100     3       0.3852304059E-02      55  100    3         0.1121893892E+03      0.1242390052E+03

    ------------------------------------------------
       NWT REQUIRED            4 OUTER ITERATIONS 
       AND A TOTAL OF         28 INNER ITERATIONS.
    ------------------------------------------------

 NO OUTPUT CONTROL FOR STRESS PERIOD   57   TIME STEP    8
 
 SOLVING FOR HEAD 
                                                   Max.-Head-Change                         Max.-Flux-Residual
  Residual-Control   Outer-Iter.   Inner-Iter.     Column Row Layer    Maximum-Head-Change  Column Row Layer    Maximum-Flux-Residual          L2-NORM 
          0                 1          10            56   99     3       0.2974343146E+01      81   46    1        -0.7898507447E+05      0.6191955347E+06
          0                 2           9            56   79     2      -0.5628675956E+00      68   51    2         0.1413702632E+05      0.6404032073E+05
          0                 3           5            56   79     2       0.3855650866E-01      64   94    1         0.3635739179E+03      0.4884634791E+03
          0                 4           3            55  100     3       0.4223556217E-02      55  100    3         0.1229709373E+03      0.1278058954E+03

    ------------------------------------------------
       NWT REQUIRED            4 OUTER ITERATIONS 
       AND A TOTAL OF         27 INNER ITERATIONS.
    ------------------------------------------------

 NO OUTPUT CONTROL FOR STRESS PERIOD   57   TIME STEP    9
 
 SOLVING FOR HEAD 
                                                   Max.-Head-Change                         Max.-Flux-Residual
  Residual-Control   Outer-Iter.   Inner-Iter.     Column Row Layer    Maximum-Head-Change  Column Row Layer    Maximum-Flux-Residual          L2-NORM 
          0                 1          10            56   99     3       0.2649878738E+01      81   46    1        -0.7644679533E+05      0.6061342229E+06
          0                 2           9            58   42     1      -0.7156535316E+00      58   42    1        -0.1130566484E+05      0.6287982575E+05
          0                 3           5            58   42     1       0.6357854276E-01      58   42    1         0.1102595392E+04      0.1278555004E+04
          0                 4           3            55  100     3       0.4293727177E-02      55  100    3         0.1249832270E+03      0.1304544345E+03

    ------------------------------------------------
       NWT REQUIRED            4 OUTER ITERATIONS 
       AND A TOTAL OF         27 INNER ITERATIONS.
    ------------------------------------------------

 NO OUTPUT CONTROL FOR STRESS PERIOD   57   TIME STEP   10
 
 SOLVING FOR HEAD 
                                                   Max.-Head-Change                         Max.-Flux-Residual
  Residual-Control   Outer-Iter.   Inner-Iter.     Column Row Layer    Maximum-Head-Change  Column Row Layer    Maximum-Flux-Residual          L2-NORM 
          0                 1          10            81   45     1      -0.2537860221E+01      81   46    1        -0.7401207553E+05      0.5951090102E+06
          0                 2           9            81   45     1       0.2304354242E+00      45   36    2         0.1201769329E+05      0.6315086802E+05
          0                 3           5            58   73     1      -0.1152444407E-01      58   73    1        -0.7899879909E+03      0.9602976344E+03
          0                 4           3            55  100     3       0.4141924023E-02      55  100    3         0.1205345229E+03      0.1452215260E+03

    ------------------------------------------------
       NWT REQUIRED            4 OUTER ITERATIONS 
       AND A TOTAL OF         27 INNER ITERATIONS.
    ------------------------------------------------

 NO OUTPUT CONTROL FOR STRESS PERIOD   57   TIME STEP   11
 
 SOLVING FOR HEAD 
                                                   Max.-Head-Change                         Max.-Flux-Residual
  Residual-Control   Outer-Iter.   Inner-Iter.     Column Row Layer    Maximum-Head-Change  Column Row Layer    Maximum-Flux-Residual          L2-NORM 
          0                 1          10            81   45     1      -0.2446511778E+01      81   46    1        -0.7167635425E+05      0.5852410901E+06
          0                 2           9            34   70     2      -0.2358924462E+01      81   46    1         0.7157775445E+04      0.5961730752E+05
          0                 3           6            34   70     2       0.2694178440E+00      58   73    1         0.5788381138E+03      0.9285627200E+03
          0                 4           4            34   70     2       0.4951018573E-02      55  100    3         0.1116919865E+03      0.1267011147E+03

    ------------------------------------------------
       NWT REQUIRED            4 OUTER ITERATIONS 
       AND A TOTAL OF         29 INNER ITERATIONS.
    ------------------------------------------------

 OUTPUT CONTROL FOR STRESS PERIOD   57   TIME STEP   12
    SAVE BUDGET
 UBDSV1 SAVING "         STORAGE" ON UNIT  39 AT TIME STEP 12, STRESS PERIOD  57
 UBDSV2 SAVING "   CONSTANT HEAD" ON UNIT  39 AT TIME STEP 12, STRESS PERIOD  57
 UBDSV1 SAVING "FLOW RIGHT FACE " ON UNIT  39 AT TIME STEP 12, STRESS PERIOD  57
 UBDSV1 SAVING "FLOW FRONT FACE " ON UNIT  39 AT TIME STEP 12, STRESS PERIOD  57
 UBDSV1 SAVING "FLOW LOWER FACE " ON UNIT  39 AT TIME STEP 12, STRESS PERIOD  57
 UBDSV4 SAVING "           WELLS" ON UNIT  39 AT TIME STEP 12, STRESS PERIOD  57
 UBDSV3 SAVING "              ET" ON UNIT  39 AT TIME STEP 12, STRESS PERIOD  57
 UBDSV3 SAVING "        RECHARGE" ON UNIT  39 AT TIME STEP 12, STRESS PERIOD  57
1
  VOLUMETRIC BUDGET FOR ENTIRE MODEL AT END OF TIME STEP   12, STRESS PERIOD  57
  ------------------------------------------------------------------------------

     CUMULATIVE VOLUMES      L**3       RATES FOR THIS TIME STEP      L**3/T
     ------------------                 ------------------------

           IN:                                      IN:
           ---                                      ---
             STORAGE =366959067136.0000               STORAGE =    24485266.0000
       CONSTANT HEAD = 37001510912.0000         CONSTANT HEAD =     2537033.5000
               WELLS = 25517369344.0000                 WELLS =     1225642.0000
                  ET =           0.0000                    ET =           0.0000
            RECHARGE =427458265088.0000              RECHARGE =    14807526.0000

            TOTAL IN =856936218624.0000              TOTAL IN =    43055468.0000

          OUT:                                     OUT:
          ----                                     ----
             STORAGE = 82192588800.0000               STORAGE =     1005842.5000
       CONSTANT HEAD = 65843433472.0000         CONSTANT HEAD =     2110172.7500
               WELLS =687246409728.0000                 WELLS =    39312044.0000
                  ET = 21653280768.0000                    ET =      627504.3125
            RECHARGE =           0.0000              RECHARGE =           0.0000

           TOTAL OUT =856935694336.0000             TOTAL OUT =    43055564.0000

            IN - OUT =      524288.0000              IN - OUT =         -96.0000

 PERCENT DISCREPANCY =           0.00     PERCENT DISCREPANCY =          -0.00






         TIME SUMMARY AT END OF TIME STEP   12 IN STRESS PERIOD   57
                    SECONDS     MINUTES      HOURS       DAYS        YEARS
                    -----------------------------------------------------------
   TIME STEP LENGTH 2.63520E+06  43920.      732.00      30.500     8.35044E-02
 STRESS PERIOD TIME 3.16224E+07 5.27040E+05  8784.0      366.00      1.0021    
         TOTAL TIME 1.79885E+09 2.99808E+07 4.99680E+05  20820.      57.002    
1
1
                            STRESS PERIOD NO.   58, LENGTH =   365.0000    
                            -----------------------------------------------

                              NUMBER OF TIME STEPS =    12

                               MULTIPLIER FOR DELT =     1.000

                            INITIAL TIME STEP SIZE =   30.41667    

   1706 WELLS

 REUSING SURF FROM LAST STRESS PERIOD

 REUSING EVTR FROM LAST STRESS PERIOD

 REUSING EXDP FROM LAST STRESS PERIOD



                           RECHARGE
 READING ON UNIT   16 WITH FORMAT: (15F5.0)            


     63 TIME-VARIANT SPECIFIED-HEAD CELLS
 
 SOLVING FOR HEAD 
                                                   Max.-Head-Change                         Max.-Flux-Residual
  Residual-Control   Outer-Iter.   Inner-Iter.     Column Row Layer    Maximum-Head-Change  Column Row Layer    Maximum-Flux-Residual          L2-NORM 
          0                 1          11            84   50     3      -0.3096336968E+02      55  107    3         0.1738273815E+06      0.8857820542E+06
          0                 2           9            84   50     3       0.2843630973E+01      51   36    2         0.7212674766E+05      0.1229155963E+06
          0                 3           6            55  107     2       0.4540420412E-01      55   99    3         0.1118192979E+04      0.1836404416E+04
          0                 4           4            55   99     3      -0.1745426263E-01      55   99    3        -0.4916955764E+03      0.5023651888E+03
          0                 5           3            55   99     3       0.5037503547E-02      55   99    3         0.1555886706E+03      0.1556197644E+03

    ------------------------------------------------
       NWT REQUIRED            5 OUTER ITERATIONS 
       AND A TOTAL OF         33 INNER ITERATIONS.
    ------------------------------------------------

 NO OUTPUT CONTROL FOR STRESS PERIOD   58   TIME STEP    1
 
 SOLVING FOR HEAD 
                                                   Max.-Head-Change                         Max.-Flux-Residual
  Residual-Control   Outer-Iter.   Inner-Iter.     Column Row Layer    Maximum-Head-Change  Column Row Layer    Maximum-Flux-Residual          L2-NORM 
          0                 1          10            84   50     3      -0.5252666229E+01      56   99    3        -0.8637118306E+05      0.6572874339E+06
          0                 2           9            82   52     1      -0.5409264374E+01      82   52    1        -0.1594837106E+05      0.6939475726E+05
          0                 3           6            82   52     1       0.4193472578E+00      82   52    1         0.1360889779E+04      0.2114373117E+04
          0                 4           3            55   99     3      -0.1167056648E-01      55   99    3        -0.3288557910E+03      0.3491893684E+03
          0                 5           2            55   99     3       0.3527827351E-02      55   99    3         0.1089948137E+03      0.1090961440E+03

    ------------------------------------------------
       NWT REQUIRED            5 OUTER ITERATIONS 
       AND A TOTAL OF         30 INNER ITERATIONS.
    ------------------------------------------------

 NO OUTPUT CONTROL FOR STRESS PERIOD   58   TIME STEP    2
 
 SOLVING FOR HEAD 
                                                   Max.-Head-Change                         Max.-Flux-Residual
  Residual-Control   Outer-Iter.   Inner-Iter.     Column Row Layer    Maximum-Head-Change  Column Row Layer    Maximum-Flux-Residual          L2-NORM 
          0                 1          10            82   52     1      -0.5807975496E+01      56   99    3        -0.7375447648E+05      0.6064760494E+06
          0                 2           9            66  100     1      -0.6116294497E+00      43   32    1         0.7859028965E+04      0.6148650285E+05
          0                 3           6            66  100     1       0.4802695226E-01      43   32    1        -0.1342928646E+04      0.1647589528E+04
          0                 4           4            55   99     3      -0.7198817438E-02      55   99    3        -0.2028998863E+03      0.2313587163E+03

    ------------------------------------------------
       NWT REQUIRED            4 OUTER ITERATIONS 
       AND A TOTAL OF         29 INNER ITERATIONS.
    ------------------------------------------------

 NO OUTPUT CONTROL FOR STRESS PERIOD   58   TIME STEP    3
 
 SOLVING FOR HEAD 
                                                   Max.-Head-Change                         Max.-Flux-Residual
  Residual-Control   Outer-Iter.   Inner-Iter.     Column Row Layer    Maximum-Head-Change  Column Row Layer    Maximum-Flux-Residual          L2-NORM 
          0                 1          10            56   99     3      -0.2640896263E+01      81   46    1        -0.7110834029E+05      0.5827752842E+06
          0                 2           9            65    7     2      -0.5842997622E+01      43   32    1         0.8448183118E+04      0.5934927784E+05
          0                 3           6            65    7     2       0.2752935777E+00      43   32    1        -0.1648231278E+04      0.1769902080E+04
          0                 4           4            65    7     2       0.1201289432E-01      55   99    3        -0.1243495650E+03      0.1703118913E+03
          0                 5           3            55   99     3       0.1383895387E-02      55   99    3         0.4277923905E+02      0.4321027832E+02

    ------------------------------------------------
       NWT REQUIRED            5 OUTER ITERATIONS 
       AND A TOTAL OF         32 INNER ITERATIONS.
    ------------------------------------------------

 NO OUTPUT CONTROL FOR STRESS PERIOD   58   TIME STEP    4
 
 SOLVING FOR HEAD 
                                                   Max.-Head-Change                         Max.-Flux-Residual
  Residual-Control   Outer-Iter.   Inner-Iter.     Column Row Layer    Maximum-Head-Change  Column Row Layer    Maximum-Flux-Residual          L2-NORM 
          0                 1          10            65    7     2      -0.2922355498E+01      81   46    1        -0.6898375374E+05      0.5676430962E+06
          0                 2           9            91   68     1      -0.2434516160E+00      43   32    1         0.8567782589E+04      0.5758594364E+05
          0                 3           6            91   68     1       0.2060745686E-01      43   32    1        -0.1822734516E+04      0.1868343396E+04
          0                 4           4            55   99     3      -0.2375749915E-02      43   32    1         0.1173394241E+03      0.1476750147E+03

    ------------------------------------------------
       NWT REQUIRED            4 OUTER ITERATIONS 
       AND A TOTAL OF         29 INNER ITERATIONS.
    ------------------------------------------------

 NO OUTPUT CONTROL FOR STRESS PERIOD   58   TIME STEP    5
 
 SOLVING FOR HEAD 
                                                   Max.-Head-Change                         Max.-Flux-Residual
  Residual-Control   Outer-Iter.   Inner-Iter.     Column Row Layer    Maximum-Head-Change  Column Row Layer    Maximum-Flux-Residual          L2-NORM 
          0                 1          10            81   45     1      -0.2231908655E+01      81   46    1        -0.6690827200E+05      0.5567489506E+06
          0                 2           9            73   15     2      -0.7815950684E+00      43   32    1         0.8483900833E+04      0.5703894624E+05
          0                 3           6            73   15     2       0.6524218159E-01      43   32    1        -0.1908286700E+04      0.2061530148E+04
          0                 4           4            43   32     1       0.1476192056E-02      43   32    1         0.1430861138E+03      0.1518912959E+03

    ------------------------------------------------
       NWT REQUIRED            4 OUTER ITERATIONS 
       AND A TOTAL OF         29 INNER ITERATIONS.
    ------------------------------------------------

 NO OUTPUT CONTROL FOR STRESS PERIOD   58   TIME STEP    6
 
 SOLVING FOR HEAD 
                                                   Max.-Head-Change                         Max.-Flux-Residual
  Residual-Control   Outer-Iter.   Inner-Iter.     Column Row Layer    Maximum-Head-Change  Column Row Layer    Maximum-Flux-Residual          L2-NORM 
          0                 1          10            81   45     1      -0.2155991383E+01      81   46    1        -0.6491531333E+05      0.5485173286E+06
          0                 2           9            70   17     1      -0.7300175936E+00      62   89    2         0.1300310648E+05      0.5728499005E+05
          0                 3           6            70   17     1       0.6199580211E-01      43   32    1        -0.1932919338E+04      0.2187350410E+04
          0                 4           4            43   32     1       0.1630343575E-02      43   32    1         0.1578776187E+03      0.1788617276E+03

    ------------------------------------------------
       NWT REQUIRED            4 OUTER ITERATIONS 
       AND A TOTAL OF         29 INNER ITERATIONS.
    ------------------------------------------------

 NO OUTPUT CONTROL FOR STRESS PERIOD   58   TIME STEP    7
 
 SOLVING FOR HEAD 
                                                   Max.-Head-Change                         Max.-Flux-Residual
  Residual-Control   Outer-Iter.   Inner-Iter.     Column Row Layer    Maximum-Head-Change  Column Row Layer    Maximum-Flux-Residual          L2-NORM 
          0                 1          10            81   45     1      -0.2087114998E+01      81   46    1        -0.6300353227E+05      0.5419330616E+06
          0                 2           9            62   89     1      -0.2431467237E+00      62   93    2         0.1143893423E+05      0.5745262592E+05
          0                 3           6            68   51     1      -0.9523147365E-01      68   51    1        -0.4174222991E+04      0.4674453856E+04
          0                 4           4            68   51     1      -0.8585560232E-02      68   51    1        -0.3761894277E+03      0.4099493142E+03

    ------------------------------------------------
       NWT REQUIRED            4 OUTER ITERATIONS 
       AND A TOTAL OF         29 INNER ITERATIONS.
    ------------------------------------------------

 NO OUTPUT CONTROL FOR STRESS PERIOD   58   TIME STEP    8
 
 SOLVING FOR HEAD 
                                                   Max.-Head-Change                         Max.-Flux-Residual
  Residual-Control   Outer-Iter.   Inner-Iter.     Column Row Layer    Maximum-Head-Change  Column Row Layer    Maximum-Flux-Residual          L2-NORM 
          0                 1          10            81   45     1      -0.2020344908E+01      81   46    1        -0.6117076346E+05      0.5362557955E+06
          0                 2           9            68   51     1      -0.1096276538E+01      69   47    2         0.2791839919E+05      0.6163323167E+05
          0                 3           6            68   51     1       0.9494890966E-01      43   32    1        -0.1855630365E+04      0.2010680231E+04
          0                 4           4            43   32     1       0.1644780039E-02      43   32    1         0.1589703951E+03      0.1594002236E+03

    ------------------------------------------------
       NWT REQUIRED            4 OUTER ITERATIONS 
       AND A TOTAL OF         29 INNER ITERATIONS.
    ------------------------------------------------

 NO OUTPUT CONTROL FOR STRESS PERIOD   58   TIME STEP    9
 
 SOLVING FOR HEAD 
                                                   Max.-Head-Change                         Max.-Flux-Residual
  Residual-Control   Outer-Iter.   Inner-Iter.     Column Row Layer    Maximum-Head-Change  Column Row Layer    Maximum-Flux-Residual          L2-NORM 
          0                 1          10            81   45     1      -0.1956897198E+01      81   46    1        -0.5945030937E+05      0.5313739399E+06
          0                 2           9            69   56     1      -0.1292157781E+01      77   46    2         0.1470364923E+05      0.5710205513E+05
          0                 3           6            43   38     2      -0.1159899575E+00      43   38    2        -0.6432188928E+04      0.7402893838E+04
          0                 4           4            43   38     1      -0.1055165401E-01      43   38    2        -0.5791658183E+03      0.6625618855E+03
          0                 5           3            43   38     1      -0.9598488126E-03      43   38    2        -0.5206923786E+02      0.5823801512E+02

    ------------------------------------------------
       NWT REQUIRED            5 OUTER ITERATIONS 
       AND A TOTAL OF         32 INNER ITERATIONS.
    ------------------------------------------------

 NO OUTPUT CONTROL FOR STRESS PERIOD   58   TIME STEP   10
 
 SOLVING FOR HEAD 
                                                   Max.-Head-Change                         Max.-Flux-Residual
  Residual-Control   Outer-Iter.   Inner-Iter.     Column Row Layer    Maximum-Head-Change  Column Row Layer    Maximum-Flux-Residual          L2-NORM 
          0                 1          10            69   56     1      -0.1951129671E+01      81   46    1        -0.5779482555E+05      0.5268957538E+06
          0                 2           9            73   60     1      -0.1245755774E+01      50   38    2         0.8961096961E+04      0.5501663457E+05
          0                 3           6            73   60     1       0.1042894594E+00      58   67    1        -0.4765375487E+04      0.5134381015E+04
          0                 4           4            58   67     1      -0.6501722196E-02      58   67    1        -0.4295376756E+03      0.4505953133E+03

    ------------------------------------------------
       NWT REQUIRED            4 OUTER ITERATIONS 
       AND A TOTAL OF         29 INNER ITERATIONS.
    ------------------------------------------------

 NO OUTPUT CONTROL FOR STRESS PERIOD   58   TIME STEP   11
 
 SOLVING FOR HEAD 
                                                   Max.-Head-Change                         Max.-Flux-Residual
  Residual-Control   Outer-Iter.   Inner-Iter.     Column Row Layer    Maximum-Head-Change  Column Row Layer    Maximum-Flux-Residual          L2-NORM 
          0                 1          10            81   45     1      -0.1838833056E+01      81   46    1        -0.5620154115E+05      0.5228693031E+06
          0                 2           9            66    4     2      -0.5323042432E+00      51   38    2         0.1115911356E+05      0.5513763517E+05
          0                 3           6            43   32     1      -0.1834590061E-01      43   32    1        -0.1556188488E+04      0.1816164140E+04
          0                 4           4            43   32     1       0.1268337052E-02      43   32    1         0.1218617231E+03      0.1256748199E+03

    ------------------------------------------------
       NWT REQUIRED            4 OUTER ITERATIONS 
       AND A TOTAL OF         29 INNER ITERATIONS.
    ------------------------------------------------

 OUTPUT CONTROL FOR STRESS PERIOD   58   TIME STEP   12
    SAVE BUDGET
 UBDSV1 SAVING "         STORAGE" ON UNIT  39 AT TIME STEP 12, STRESS PERIOD  58
 UBDSV2 SAVING "   CONSTANT HEAD" ON UNIT  39 AT TIME STEP 12, STRESS PERIOD  58
 UBDSV1 SAVING "FLOW RIGHT FACE " ON UNIT  39 AT TIME STEP 12, STRESS PERIOD  58
 UBDSV1 SAVING "FLOW FRONT FACE " ON UNIT  39 AT TIME STEP 12, STRESS PERIOD  58
 UBDSV1 SAVING "FLOW LOWER FACE " ON UNIT  39 AT TIME STEP 12, STRESS PERIOD  58
 UBDSV4 SAVING "           WELLS" ON UNIT  39 AT TIME STEP 12, STRESS PERIOD  58
 UBDSV3 SAVING "              ET" ON UNIT  39 AT TIME STEP 12, STRESS PERIOD  58
 UBDSV3 SAVING "        RECHARGE" ON UNIT  39 AT TIME STEP 12, STRESS PERIOD  58
1
  VOLUMETRIC BUDGET FOR ENTIRE MODEL AT END OF TIME STEP   12, STRESS PERIOD  58
  ------------------------------------------------------------------------------

     CUMULATIVE VOLUMES      L**3       RATES FOR THIS TIME STEP      L**3/T
     ------------------                 ------------------------

           IN:                                      IN:
           ---                                      ---
             STORAGE =375940284416.0000               STORAGE =    24048014.0000
       CONSTANT HEAD = 37948600320.0000         CONSTANT HEAD =     2594290.0000
               WELLS = 25964726272.0000                 WELLS =     1225642.0000
                  ET =           0.0000                    ET =           0.0000
            RECHARGE =432599957504.0000              RECHARGE =    14087306.0000

            TOTAL IN =872453570560.0000              TOTAL IN =    41955252.0000

          OUT:                                     OUT:
          ----                                     ----
             STORAGE = 82576343040.0000               STORAGE =      700612.6875
       CONSTANT HEAD = 66553532416.0000         CONSTANT HEAD =     1843809.5000
               WELLS =701488300032.0000                 WELLS =    38987052.0000
                  ET = 21835137024.0000                    ET =      423783.1875
            RECHARGE =           0.0000              RECHARGE =           0.0000

           TOTAL OUT =872453308416.0000             TOTAL OUT =    41955256.0000

            IN - OUT =      262144.0000              IN - OUT =          -4.0000

 PERCENT DISCREPANCY =           0.00     PERCENT DISCREPANCY =          -0.00






         TIME SUMMARY AT END OF TIME STEP   12 IN STRESS PERIOD   58
                    SECONDS     MINUTES      HOURS       DAYS        YEARS
                    -----------------------------------------------------------
   TIME STEP LENGTH 2.62800E+06  43800.      730.00      30.417     8.32763E-02
 STRESS PERIOD TIME 3.15360E+07 5.25600E+05  8760.0      365.00     0.99932    
         TOTAL TIME 1.83038E+09 3.05064E+07 5.08439E+05  21185.      58.001    
1
1
                            STRESS PERIOD NO.   59, LENGTH =   365.0000    
                            -----------------------------------------------

                              NUMBER OF TIME STEPS =    12

                               MULTIPLIER FOR DELT =     1.000

                            INITIAL TIME STEP SIZE =   30.41667    

   1670 WELLS

 REUSING SURF FROM LAST STRESS PERIOD

 REUSING EVTR FROM LAST STRESS PERIOD

 REUSING EXDP FROM LAST STRESS PERIOD



                           RECHARGE
 READING ON UNIT   16 WITH FORMAT: (15F5.0)            


     63 TIME-VARIANT SPECIFIED-HEAD CELLS
 
 SOLVING FOR HEAD 
                                                   Max.-Head-Change                         Max.-Flux-Residual
  Residual-Control   Outer-Iter.   Inner-Iter.     Column Row Layer    Maximum-Head-Change  Column Row Layer    Maximum-Flux-Residual          L2-NORM 
          0                 1          11            92   77     2       0.1437210020E+03      54   47    2        -0.2543689460E+06      0.1424766625E+07
          0                 2          10            88   67     1      -0.3600164027E+02      88   67    1        -0.1490559237E+07      0.1815219111E+07
          0                 3           6            91   77     2       0.1126954375E+02      85   57    2        -0.5679540739E+05      0.6568470712E+05
          0                 4           4            91   77     2       0.1818546153E+01      55  100    3         0.3169022500E+05      0.3213107133E+05
          0                 5           3            55  100     3      -0.1266464853E+01      55  100    3        -0.4051888582E+05      0.4052189001E+05
          0                 6           3            55  100     3       0.1161763102E+01      55  100    3         0.4067619560E+05      0.4067623304E+05
          0                 7           3            55  100     3      -0.8473420577E+00      55  100    3        -0.3246123663E+05      0.3246124609E+05
          0                 8           3            55  100     3       0.5819828281E+00      55  100    3         0.2433165838E+05      0.2433166363E+05
          0                 9           3            55  100     3      -0.2839791354E+00      55  100    3        -0.1294869974E+05      0.1294870406E+05
          0                10           3            55  100     3       0.1266119388E+00      55  100    3         0.6280720475E+04      0.6280721883E+04
                                                   Max.-Head-Change                         Max.-Flux-Residual
  Residual-Control   Outer-Iter.   Inner-Iter.     Column Row Layer    Maximum-Head-Change  Column Row Layer    Maximum-Flux-Residual          L2-NORM 
          0                11           2            55  100     3      -0.3829377560E-01      55  100    3        -0.2064482151E+04      0.2064483480E+04
          0                12           2            55  100     3       0.8556486434E-02      55  100    3         0.4997788929E+03      0.4997796846E+03

    ------------------------------------------------
       NWT REQUIRED           12 OUTER ITERATIONS 
       AND A TOTAL OF         53 INNER ITERATIONS.
    ------------------------------------------------

 NO OUTPUT CONTROL FOR STRESS PERIOD   59   TIME STEP    1
 
 SOLVING FOR HEAD 
                                                   Max.-Head-Change                         Max.-Flux-Residual
  Residual-Control   Outer-Iter.   Inner-Iter.     Column Row Layer    Maximum-Head-Change  Column Row Layer    Maximum-Flux-Residual          L2-NORM 
          0                 1          11            92   52     1       0.4982572923E+01      83   51    1         0.1953383515E+06      0.1098508487E+07
          0                 2           9            85   57     2      -0.1933111455E+02      55  100    3         0.3150801381E+05      0.1204547415E+06
          0                 3           6            55  100     3      -0.1572145888E+01      55  100    3        -0.4179421738E+05      0.4181343689E+05
          0                 4           4            55  100     3       0.1370209089E+01      55  100    3         0.3995839168E+05      0.3995877994E+05
          0                 5           3            55  100     3      -0.8609841139E+00      55  100    3        -0.2755055629E+05      0.2755059183E+05
          0                 6           3            55  100     3       0.6206299866E+00      55  100    3         0.2172962628E+05      0.2172963269E+05
          0                 7           3            55  100     3      -0.3077184603E+00      55  100    3        -0.1178811102E+05      0.1178811724E+05
          0                 8           3            55  100     3       0.1489650719E+00      55  100    3         0.6227845132E+04      0.6227846660E+04
          0                 9           2            55  100     3      -0.4761453863E-01      55  100    3        -0.2171222276E+04      0.2171223692E+04
          0                10           2            55  100     3       0.1172450968E-01      55  100    3         0.5814086107E+03      0.5814088527E+03
          0                11           1            55  100     3      -0.1674425735E-02      55  100    3        -0.9039206843E+02      0.9039268988E+02

    ------------------------------------------------
       NWT REQUIRED           11 OUTER ITERATIONS 
       AND A TOTAL OF         47 INNER ITERATIONS.
    ------------------------------------------------

 NO OUTPUT CONTROL FOR STRESS PERIOD   59   TIME STEP    2
 
 SOLVING FOR HEAD 
                                                   Max.-Head-Change                         Max.-Flux-Residual
  Residual-Control   Outer-Iter.   Inner-Iter.     Column Row Layer    Maximum-Head-Change  Column Row Layer    Maximum-Flux-Residual          L2-NORM 
          0                 1          11            85   52     1       0.4406610565E+01      85   52    1         0.1784609873E+06      0.9542111223E+06
          0                 2           9            69   47     2       0.3633838756E+01      69   47    2         0.3105325166E+05      0.1027959743E+06
          0                 3           6            55  100     3      -0.5303015766E+00      55  100    3        -0.1409513513E+05      0.1459383755E+05
          0                 4           4            55  100     3       0.4667533447E+00      55  100    3         0.1361433731E+05      0.1361503982E+05
          0                 5           3            55  100     3      -0.3234069039E+00      55  100    3        -0.1034528281E+05      0.1034531836E+05
          0                 6           3            55  100     3       0.1988141097E+00      55  100    3         0.6962180765E+04      0.6962183575E+04
          0                 7           2            55  100     3      -0.8658896414E-01      55  100    3        -0.3316564373E+04      0.3316566036E+04
          0                 8           2            55  100     3       0.3123224852E-01      55  100    3         0.1305873559E+04      0.1305873988E+04
          0                 9           2            55  100     3      -0.7365915161E-02      55  100    3        -0.3358683788E+03      0.3358686067E+03

    ------------------------------------------------
       NWT REQUIRED            9 OUTER ITERATIONS 
       AND A TOTAL OF         42 INNER ITERATIONS.
    ------------------------------------------------

 NO OUTPUT CONTROL FOR STRESS PERIOD   59   TIME STEP    3
 
 SOLVING FOR HEAD 
                                                   Max.-Head-Change                         Max.-Flux-Residual
  Residual-Control   Outer-Iter.   Inner-Iter.     Column Row Layer    Maximum-Head-Change  Column Row Layer    Maximum-Flux-Residual          L2-NORM 
          0                 1          10            85   52     1       0.4057780603E+01      85   52    1         0.1648356590E+06      0.8588019955E+06
          0                 2           9            54   47     1      -0.7239707779E+00      85   52    1        -0.2313596729E+05      0.9306468670E+05
          0                 3           6            55  100     3      -0.2141579702E+00      55  100    3        -0.5692070569E+04      0.6347531443E+04
          0                 4           4            55  100     3       0.1753639295E+00      55  100    3         0.5115445040E+04      0.5117554266E+04
          0                 5           3            55  100     3      -0.1135268172E+00      55  100    3        -0.3631237455E+04      0.3631298791E+04
          0                 6           2            55  100     3       0.6108739127E-01      55  100    3         0.2139320070E+04      0.2139321933E+04
          0                 7           2            55  100     3      -0.2394476725E-01      55  100    3        -0.9170780314E+03      0.9170785303E+03
          0                 8           2            55  100     3       0.7045948106E-02      55  100    3         0.2946189358E+03      0.2946190663E+03

    ------------------------------------------------
       NWT REQUIRED            8 OUTER ITERATIONS 
       AND A TOTAL OF         38 INNER ITERATIONS.
    ------------------------------------------------

 NO OUTPUT CONTROL FOR STRESS PERIOD   59   TIME STEP    4
 
 SOLVING FOR HEAD 
                                                   Max.-Head-Change                         Max.-Flux-Residual
  Residual-Control   Outer-Iter.   Inner-Iter.     Column Row Layer    Maximum-Head-Change  Column Row Layer    Maximum-Flux-Residual          L2-NORM 
          0                 1          10            77   48     1       0.3711589299E+01      77   48    1         0.1497584541E+06      0.7882082075E+06
          0                 2           9            72   61     1      -0.1386380689E+01      77   48    1        -0.1586604716E+05      0.7943578067E+05
          0                 3           6            72   61     1       0.1134250289E+00      59   75    1        -0.3739295230E+04      0.5125688655E+04
          0                 4           4            55  100     3       0.8449862802E-01      55  100    3         0.2464909069E+04      0.2488553664E+04
          0                 5           3            55  100     3      -0.5169974061E-01      55  100    3        -0.1653585030E+04      0.1653908670E+04
          0                 6           2            55  100     3       0.2549058033E-01      55  100    3         0.8927011442E+03      0.8927066494E+03
          0                 7           2            55  100     3      -0.9200833934E-02      55  100    3        -0.3523741796E+03      0.3523744720E+03

    ------------------------------------------------
       NWT REQUIRED            7 OUTER ITERATIONS 
       AND A TOTAL OF         36 INNER ITERATIONS.
    ------------------------------------------------

 NO OUTPUT CONTROL FOR STRESS PERIOD   59   TIME STEP    5
 
 SOLVING FOR HEAD 
                                                   Max.-Head-Change                         Max.-Flux-Residual
  Residual-Control   Outer-Iter.   Inner-Iter.     Column Row Layer    Maximum-Head-Change  Column Row Layer    Maximum-Flux-Residual          L2-NORM 
          0                 1          10            77   48     1       0.3457734883E+01      77   48    1         0.1392169707E+06      0.7322200142E+06
          0                 2           9            77   48     1      -0.7140288984E+00      77   48    1        -0.3804650835E+05      0.8247109425E+05
          0                 3           6            55  100     3      -0.6351419534E-01      55  100    3        -0.1688106110E+04      0.1859404083E+04
          0                 4           4            55  100     3       0.4689357065E-01      55  100    3         0.1367920864E+04      0.1368471071E+04
          0                 5           3            55  100     3      -0.2739064388E-01      55  100    3        -0.8760426637E+03      0.8760795219E+03
          0                 6           2            55  100     3       0.1265152834E-01      55  100    3         0.4430603458E+03      0.4430614506E+03
          0                 7           2            55  100     3      -0.4263682819E-02      55  100    3        -0.1632845938E+03      0.1632847101E+03

    ------------------------------------------------
       NWT REQUIRED            7 OUTER ITERATIONS 
       AND A TOTAL OF         36 INNER ITERATIONS.
    ------------------------------------------------

 NO OUTPUT CONTROL FOR STRESS PERIOD   59   TIME STEP    6
 
 SOLVING FOR HEAD 
                                                   Max.-Head-Change                         Max.-Flux-Residual
  Residual-Control   Outer-Iter.   Inner-Iter.     Column Row Layer    Maximum-Head-Change  Column Row Layer    Maximum-Flux-Residual          L2-NORM 
          0                 1          10            76   48     1       0.3093902330E+01      76   48    1         0.1237245632E+06      0.6852794827E+06
          0                 2           9            60   86     2      -0.1433638042E+01      76   48    1        -0.2388374506E+05      0.7309767146E+05
          0                 3           6            60   86     2       0.1110477272E+00      55  100    3        -0.1186266473E+04      0.1432487123E+04
          0                 4           3            55  100     3       0.3179800663E-01      55  100    3         0.9275400286E+03      0.9278728060E+03
          0                 5           3            55  100     3      -0.1787857682E-01      55  100    3        -0.5717940840E+03      0.5718158592E+03
          0                 6           2            55  100     3       0.7857278923E-02      55  100    3         0.2751567782E+03      0.2751575025E+03

    ------------------------------------------------
       NWT REQUIRED            6 OUTER ITERATIONS 
       AND A TOTAL OF         33 INNER ITERATIONS.
    ------------------------------------------------

 NO OUTPUT CONTROL FOR STRESS PERIOD   59   TIME STEP    7
 
 SOLVING FOR HEAD 
                                                   Max.-Head-Change                         Max.-Flux-Residual
  Residual-Control   Outer-Iter.   Inner-Iter.     Column Row Layer    Maximum-Head-Change  Column Row Layer    Maximum-Flux-Residual          L2-NORM 
          0                 1          10            92   52     1       0.2891510090E+01      76   48    1         0.1090634576E+06      0.6464570303E+06
          0                 2           9            77   69     1      -0.3997629388E+00      34   26    2         0.1107647455E+05      0.6667047403E+05
          0                 3           6            55  100     3      -0.3810207477E-01      34   26    2        -0.1103983664E+04      0.1587307701E+04
          0                 4           3            55  100     3       0.2636900732E-01      55  100    3         0.7691380887E+03      0.7693020284E+03
          0                 5           3            55  100     3      -0.1434986881E-01      55  100    3        -0.4589198911E+03      0.4589293479E+03
          0                 6           2            55  100     3       0.6057923145E-02      55  100    3         0.2121373420E+03      0.2121377277E+03

    ------------------------------------------------
       NWT REQUIRED            6 OUTER ITERATIONS 
       AND A TOTAL OF         33 INNER ITERATIONS.
    ------------------------------------------------

 NO OUTPUT CONTROL FOR STRESS PERIOD   59   TIME STEP    8
 
 SOLVING FOR HEAD 
                                                   Max.-Head-Change                         Max.-Flux-Residual
  Residual-Control   Outer-Iter.   Inner-Iter.     Column Row Layer    Maximum-Head-Change  Column Row Layer    Maximum-Flux-Residual          L2-NORM 
          0                 1          10            92   52     1       0.2731279360E+01      75   48    1         0.1027680832E+06      0.6131812814E+06
          0                 2           9            63  110     1      -0.3077747804E+00      75   48    1        -0.1031929953E+05      0.6181271873E+05
          0                 3           6            55  100     3      -0.3340467343E-01      55  100    3        -0.8876778214E+03      0.9482673054E+03
          0                 4           3            55  100     3       0.2246705878E-01      55  100    3         0.6552937877E+03      0.6553581273E+03
          0                 5           3            55  100     3      -0.1183495235E-01      55  100    3        -0.3784766530E+03      0.3784797600E+03
          0                 6           2            55  100     3       0.4800734690E-02      55  100    3         0.1681075751E+03      0.1681077769E+03

    ------------------------------------------------
       NWT REQUIRED            6 OUTER ITERATIONS 
       AND A TOTAL OF         33 INNER ITERATIONS.
    ------------------------------------------------

 NO OUTPUT CONTROL FOR STRESS PERIOD   59   TIME STEP    9
 
 SOLVING FOR HEAD 
                                                   Max.-Head-Change                         Max.-Flux-Residual
  Residual-Control   Outer-Iter.   Inner-Iter.     Column Row Layer    Maximum-Head-Change  Column Row Layer    Maximum-Flux-Residual          L2-NORM 
          0                 1          10            92   52     1       0.2586599589E+01      75   48    1         0.9655976488E+05      0.5856397608E+06
          0                 2           9            77   46     2       0.4954636472E+00      86   52    1        -0.1070550497E+05      0.6006296894E+05
          0                 3           5            77   46     2      -0.4504599879E-01      55  100    3        -0.7923937437E+03      0.9211128486E+03
          0                 4           3            55  100     3       0.1949281455E-01      55  100    3         0.5685202971E+03      0.5689238879E+03
          0                 5           3            55  100     3      -0.9937288624E-02      55  100    3        -0.3177795563E+03      0.3177857381E+03

    ------------------------------------------------
       NWT REQUIRED            5 OUTER ITERATIONS 
       AND A TOTAL OF         30 INNER ITERATIONS.
    ------------------------------------------------

 NO OUTPUT CONTROL FOR STRESS PERIOD   59   TIME STEP   10
 
 SOLVING FOR HEAD 
                                                   Max.-Head-Change                         Max.-Flux-Residual
  Residual-Control   Outer-Iter.   Inner-Iter.     Column Row Layer    Maximum-Head-Change  Column Row Layer    Maximum-Flux-Residual          L2-NORM 
          0                 1          10            92   52     1       0.2450834028E+01      75   48    1         0.9042546701E+05      0.5621498414E+06
          0                 2           9            92   52     1      -0.2239315542E+00      83   51    1        -0.1144387236E+05      0.5876420912E+05
          0                 3           5            90   76     2      -0.7535765660E-01      90   76    2        -0.2161476922E+04      0.2358940126E+04
          0                 4           3            55  100     3       0.1859425757E-01      55  100    3         0.5206047315E+03      0.5206387724E+03
          0                 5           2            55  100     3      -0.9666429352E-02      55  100    3        -0.2967461686E+03      0.2967467780E+03

    ------------------------------------------------
       NWT REQUIRED            5 OUTER ITERATIONS 
       AND A TOTAL OF         29 INNER ITERATIONS.
    ------------------------------------------------

 NO OUTPUT CONTROL FOR STRESS PERIOD   59   TIME STEP   11
 
 SOLVING FOR HEAD 
                                                   Max.-Head-Change                         Max.-Flux-Residual
  Residual-Control   Outer-Iter.   Inner-Iter.     Column Row Layer    Maximum-Head-Change  Column Row Layer    Maximum-Flux-Residual          L2-NORM 
          0                 1          10            92   52     1       0.2324953877E+01      75   48    1         0.8446350725E+05      0.5410748361E+06
          0                 2           9            75   48     1      -0.2124455467E+00      75   48    1        -0.9611066274E+04      0.5513872135E+05
          0                 3           5            63   61     1       0.1473063651E-01      59   65    1         0.2579164495E+03      0.4647911938E+03
          0                 4           3            55  100     3       0.6315552694E-02      55  100    3         0.1768428857E+03      0.1769415031E+03

    ------------------------------------------------
       NWT REQUIRED            4 OUTER ITERATIONS 
       AND A TOTAL OF         27 INNER ITERATIONS.
    ------------------------------------------------

 OUTPUT CONTROL FOR STRESS PERIOD   59   TIME STEP   12
    SAVE BUDGET
 UBDSV1 SAVING "         STORAGE" ON UNIT  39 AT TIME STEP 12, STRESS PERIOD  59
 UBDSV2 SAVING "   CONSTANT HEAD" ON UNIT  39 AT TIME STEP 12, STRESS PERIOD  59
 UBDSV1 SAVING "FLOW RIGHT FACE " ON UNIT  39 AT TIME STEP 12, STRESS PERIOD  59
 UBDSV1 SAVING "FLOW FRONT FACE " ON UNIT  39 AT TIME STEP 12, STRESS PERIOD  59
 UBDSV1 SAVING "FLOW LOWER FACE " ON UNIT  39 AT TIME STEP 12, STRESS PERIOD  59
 UBDSV4 SAVING "           WELLS" ON UNIT  39 AT TIME STEP 12, STRESS PERIOD  59
 UBDSV3 SAVING "              ET" ON UNIT  39 AT TIME STEP 12, STRESS PERIOD  59
 UBDSV3 SAVING "        RECHARGE" ON UNIT  39 AT TIME STEP 12, STRESS PERIOD  59
1
  VOLUMETRIC BUDGET FOR ENTIRE MODEL AT END OF TIME STEP   12, STRESS PERIOD  59
  ------------------------------------------------------------------------------

     CUMULATIVE VOLUMES      L**3       RATES FOR THIS TIME STEP      L**3/T
     ------------------                 ------------------------

           IN:                                      IN:
           ---                                      ---
             STORAGE =381834821632.0000               STORAGE =    14784634.0000
       CONSTANT HEAD = 38887837696.0000         CONSTANT HEAD =     2561741.0000
               WELLS = 26412083200.0000                 WELLS =     1225642.0000
                  ET =           0.0000                    ET =           0.0000
            RECHARGE =442382778368.0000              RECHARGE =    26801958.0000

            TOTAL IN =889517506560.0000              TOTAL IN =    45373976.0000

          OUT:                                     OUT:
          ----                                     ----
             STORAGE = 85867716608.0000               STORAGE =     7362864.0000
       CONSTANT HEAD = 67213148160.0000         CONSTANT HEAD =     1773243.2500
               WELLS =714277978112.0000                 WELLS =    35036260.0000
                  ET = 22158315520.0000                    ET =     1201709.3750
            RECHARGE =           0.0000              RECHARGE =           0.0000

           TOTAL OUT =889517113344.0000             TOTAL OUT =    45374076.0000

            IN - OUT =      393216.0000              IN - OUT =        -100.0000

 PERCENT DISCREPANCY =           0.00     PERCENT DISCREPANCY =          -0.00






         TIME SUMMARY AT END OF TIME STEP   12 IN STRESS PERIOD   59
                    SECONDS     MINUTES      HOURS       DAYS        YEARS
                    -----------------------------------------------------------
   TIME STEP LENGTH 2.62800E+06  43800.      730.00      30.417     8.32763E-02
 STRESS PERIOD TIME 3.15360E+07 5.25600E+05  8760.0      365.00     0.99932    
         TOTAL TIME 1.86192E+09 3.10320E+07 5.17199E+05  21550.      59.001    
1
1
                            STRESS PERIOD NO.   60, LENGTH =   365.0000    
                            -----------------------------------------------

                              NUMBER OF TIME STEPS =    12

                               MULTIPLIER FOR DELT =     1.000

                            INITIAL TIME STEP SIZE =   30.41667    

   1685 WELLS

 REUSING SURF FROM LAST STRESS PERIOD

 REUSING EVTR FROM LAST STRESS PERIOD

 REUSING EXDP FROM LAST STRESS PERIOD



                           RECHARGE
 READING ON UNIT   16 WITH FORMAT: (15F5.0)            


     63 TIME-VARIANT SPECIFIED-HEAD CELLS
 
 SOLVING FOR HEAD 
                                                   Max.-Head-Change                         Max.-Flux-Residual
  Residual-Control   Outer-Iter.   Inner-Iter.     Column Row Layer    Maximum-Head-Change  Column Row Layer    Maximum-Flux-Residual          L2-NORM 
          0                 1          11            84   61     1      -0.2769784380E+02      79   49    1        -0.1924740971E+06      0.1134155895E+07
          0                 2          10            81   59     1      -0.1449992259E+02      81   59    1        -0.2677240942E+05      0.1152243475E+06
          0                 3           6            81   59     1       0.1057186852E+01      81   59    2        -0.2502070716E+04      0.3516586727E+04
          0                 4           4            81   59     1       0.1824655207E-01      55  100    3        -0.8166167513E+02      0.1159518397E+03
          0                 5           3            81   59     1       0.3141627186E-03      55  100    3         0.5203937601E+01      0.7800554724E+01

    ------------------------------------------------
       NWT REQUIRED            5 OUTER ITERATIONS 
       AND A TOTAL OF         34 INNER ITERATIONS.
    ------------------------------------------------

 NO OUTPUT CONTROL FOR STRESS PERIOD   60   TIME STEP    1
 
 SOLVING FOR HEAD 
                                                   Max.-Head-Change                         Max.-Flux-Residual
  Residual-Control   Outer-Iter.   Inner-Iter.     Column Row Layer    Maximum-Head-Change  Column Row Layer    Maximum-Flux-Residual          L2-NORM 
          0                 1          11            30   53     2       0.3934116537E+01      79   49    1        -0.1509674710E+06      0.8412872767E+06
          0                 2           9            78   87     1      -0.4865863759E+00      79   49    1         0.1485158284E+05      0.8446962688E+05
          0                 3           6            87   66     2      -0.3902899747E-01      32   28    2         0.6557695415E+03      0.9620222630E+03
          0                 4           5            55  100     3      -0.3506089671E-02      55  100    3        -0.9829695011E+02      0.1304842784E+03

    ------------------------------------------------
       NWT REQUIRED            4 OUTER ITERATIONS 
       AND A TOTAL OF         31 INNER ITERATIONS.
    ------------------------------------------------

 NO OUTPUT CONTROL FOR STRESS PERIOD   60   TIME STEP    2
 
 SOLVING FOR HEAD 
                                                   Max.-Head-Change                         Max.-Flux-Residual
  Residual-Control   Outer-Iter.   Inner-Iter.     Column Row Layer    Maximum-Head-Change  Column Row Layer    Maximum-Flux-Residual          L2-NORM 
          0                 1          11            87   51     1      -0.3135290550E+01      83   51    1        -0.1227222737E+06      0.7169094339E+06
          0                 2           9            83   60     1      -0.9116907327E+01      77   46    2         0.1807871348E+05      0.7880738716E+05
          0                 3           6            83   60     1       0.5971759806E+00      59   72    1         0.8448739321E+03      0.1393424363E+04
          0                 4           3            83   60     1       0.1505361533E-01      55  100    3        -0.9752024776E+02      0.1115442565E+03
          0                 5           2            83   60     1       0.3782173266E-03      55  100    3         0.1145735389E+02      0.1219797566E+02

    ------------------------------------------------
       NWT REQUIRED            5 OUTER ITERATIONS 
       AND A TOTAL OF         31 INNER ITERATIONS.
    ------------------------------------------------

 NO OUTPUT CONTROL FOR STRESS PERIOD   60   TIME STEP    3
 
 SOLVING FOR HEAD 
                                                   Max.-Head-Change                         Max.-Flux-Residual
  Residual-Control   Outer-Iter.   Inner-Iter.     Column Row Layer    Maximum-Head-Change  Column Row Layer    Maximum-Flux-Residual          L2-NORM 
          0                 1          11            88   51     1      -0.2738932222E+01      83   51    1        -0.1049960987E+06      0.6406015557E+06
          0                 2           9            70   55     1      -0.1712928411E+01      83   51    1         0.1031232256E+05      0.6539227895E+05
          0                 3           6            70   55     1       0.1461123841E+00      62   88    1        -0.9071151906E+03      0.1517418186E+04
          0                 4           3            55  100     3      -0.3064582131E-02      55  100    3        -0.8595249113E+02      0.1255676975E+03

    ------------------------------------------------
       NWT REQUIRED            4 OUTER ITERATIONS 
       AND A TOTAL OF         29 INNER ITERATIONS.
    ------------------------------------------------

 NO OUTPUT CONTROL FOR STRESS PERIOD   60   TIME STEP    4
 
 SOLVING FOR HEAD 
                                                   Max.-Head-Change                         Max.-Flux-Residual
  Residual-Control   Outer-Iter.   Inner-Iter.     Column Row Layer    Maximum-Head-Change  Column Row Layer    Maximum-Flux-Residual          L2-NORM 
          0                 1          11            88   51     1      -0.2481667522E+01      88   51    1        -0.9146768440E+05      0.5892828173E+06
          0                 2           9            65    4     2      -0.3220481491E+01      88   51    1         0.8982218672E+04      0.5955667123E+05
          0                 3           6            65    4     2       0.1034037591E+00      62   88    1         0.5117627980E+03      0.7203568330E+03
          0                 4           3            65    4     2       0.6066526821E-02      55  100    3        -0.7029850468E+02      0.7708763374E+02

    ------------------------------------------------
       NWT REQUIRED            4 OUTER ITERATIONS 
       AND A TOTAL OF         29 INNER ITERATIONS.
    ------------------------------------------------

 NO OUTPUT CONTROL FOR STRESS PERIOD   60   TIME STEP    5
 
 SOLVING FOR HEAD 
                                                   Max.-Head-Change                         Max.-Flux-Residual
  Residual-Control   Outer-Iter.   Inner-Iter.     Column Row Layer    Maximum-Head-Change  Column Row Layer    Maximum-Flux-Residual          L2-NORM 
          0                 1          10            65    4     2      -0.2470717823E+01      88   51    1        -0.8286331803E+05      0.5527537028E+06
          0                 2           9            78   69     1      -0.1186644361E+01      60   66    2         0.9586761081E+04      0.5617464545E+05
          0                 3           6            78   69     1       0.1000244779E+00      78   69    1         0.4280187020E+03      0.6530146727E+03
          0                 4           3            55  100     3      -0.1949311285E-02      55  100    3        -0.5468942121E+02      0.6019674504E+02

    ------------------------------------------------
       NWT REQUIRED            4 OUTER ITERATIONS 
       AND A TOTAL OF         28 INNER ITERATIONS.
    ------------------------------------------------

 NO OUTPUT CONTROL FOR STRESS PERIOD   60   TIME STEP    6
 
 SOLVING FOR HEAD 
                                                   Max.-Head-Change                         Max.-Flux-Residual
  Residual-Control   Outer-Iter.   Inner-Iter.     Column Row Layer    Maximum-Head-Change  Column Row Layer    Maximum-Flux-Residual          L2-NORM 
          0                 1          10            77   68     1      -0.3673026545E+01      88   51    1        -0.7539216238E+05      0.5266390798E+06
          0                 2           9            92   77     2      -0.2431400431E+02      88   51    1         0.1479361438E+05      0.5533322805E+05
          0                 3           6            92   77     2       0.2006517388E+00      51   38    1        -0.1283186044E+04      0.1601304690E+04
          0                 4           4            92   77     2       0.1638125166E-01      51   38    1        -0.1155337485E+03      0.1240286772E+03
          0                 5           3            92   77     2       0.1335927495E-02      51   38    1        -0.1038687098E+02      0.1236079896E+02

    ------------------------------------------------
       NWT REQUIRED            5 OUTER ITERATIONS 
       AND A TOTAL OF         32 INNER ITERATIONS.
    ------------------------------------------------

 NO OUTPUT CONTROL FOR STRESS PERIOD   60   TIME STEP    7
 
 SOLVING FOR HEAD 
                                                   Max.-Head-Change                         Max.-Flux-Residual
  Residual-Control   Outer-Iter.   Inner-Iter.     Column Row Layer    Maximum-Head-Change  Column Row Layer    Maximum-Flux-Residual          L2-NORM 
          0                 1          10            92   77     2      -0.6117041148E+02      92   52    1        -0.7013566739E+05      0.5057010381E+06
          0                 2           9            92   77     2       0.8522786772E+01      71   57    1        -0.7649935740E+04      0.5185117092E+05
          0                 3           6            92   77     2       0.3855983069E+00      58   79    2        -0.2893642337E+04      0.3035905338E+04
          0                 4           3            92   77     2       0.1707314056E-01      58   79    2        -0.2608158244E+03      0.2631636995E+03
          0                 5           2            58   79     1      -0.8082441918E-03      58   79    2        -0.2345057982E+02      0.2398427556E+02

    ------------------------------------------------
       NWT REQUIRED            5 OUTER ITERATIONS 
       AND A TOTAL OF         30 INNER ITERATIONS.
    ------------------------------------------------

 NO OUTPUT CONTROL FOR STRESS PERIOD   60   TIME STEP    8
 
 SOLVING FOR HEAD 
                                                   Max.-Head-Change                         Max.-Flux-Residual
  Residual-Control   Outer-Iter.   Inner-Iter.     Column Row Layer    Maximum-Head-Change  Column Row Layer    Maximum-Flux-Residual          L2-NORM 
          0                 1          10            92   52     1      -0.1855619338E+01      92   52    1        -0.6582859050E+05      0.4898024672E+06
          0                 2           9            58   79     2      -0.3565540023E+01      59   59    2         0.1415925148E+05      0.5339499232E+05
          0                 3           6            58   79     2       0.2019142418E+00      55   41    1         0.1058293145E+04      0.1223430060E+04
          0                 4           3            58   79     1       0.6897274808E-02      55  100    3        -0.2151733791E+02      0.2474381721E+02

    ------------------------------------------------
       NWT REQUIRED            4 OUTER ITERATIONS 
       AND A TOTAL OF         28 INNER ITERATIONS.
    ------------------------------------------------

 NO OUTPUT CONTROL FOR STRESS PERIOD   60   TIME STEP    9
 
 SOLVING FOR HEAD 
                                                   Max.-Head-Change                         Max.-Flux-Residual
  Residual-Control   Outer-Iter.   Inner-Iter.     Column Row Layer    Maximum-Head-Change  Column Row Layer    Maximum-Flux-Residual          L2-NORM 
          0                 1          10            92   52     1      -0.1613157740E+01      92   52    1        -0.6150893897E+05      0.4767283516E+06
          0                 2           9            81   45     1       0.2446592156E+00      60   55    2         0.9794454725E+04      0.5008463528E+05
          0                 3           5            64   53     1       0.1140413330E-01      64   53    1         0.9038271460E+02      0.1467787716E+03
          0                 4           2            55  100     3      -0.5425802256E-03      55  100    3        -0.1523280503E+02      0.1644774544E+02

    ------------------------------------------------
       NWT REQUIRED            4 OUTER ITERATIONS 
       AND A TOTAL OF         26 INNER ITERATIONS.
    ------------------------------------------------

 NO OUTPUT CONTROL FOR STRESS PERIOD   60   TIME STEP   10
 
 SOLVING FOR HEAD 
                                                   Max.-Head-Change                         Max.-Flux-Residual
  Residual-Control   Outer-Iter.   Inner-Iter.     Column Row Layer    Maximum-Head-Change  Column Row Layer    Maximum-Flux-Residual          L2-NORM 
          0                 1          10            89   51     1      -0.1444193286E+01      92   52    1        -0.5401149315E+05      0.4654847624E+06
          0                 2           9            62   63     1      -0.2505350170E+00      60   58    2         0.1103092105E+05      0.4900746153E+05
          0                 3           6            62   63     1       0.2247565214E-01      62   63    1         0.4943440536E+03      0.7044850665E+03
          0                 4           4            55  100     3      -0.3782504500E-03      18   14    2         0.4149914960E+02      0.4508012359E+02

    ------------------------------------------------
       NWT REQUIRED            4 OUTER ITERATIONS 
       AND A TOTAL OF         29 INNER ITERATIONS.
    ------------------------------------------------

 NO OUTPUT CONTROL FOR STRESS PERIOD   60   TIME STEP   11

 INTERPOLATION FOR HEAD OBS# 3703, ID 1479-60-363  CHANGED BECAUSE AT LEAST ONE
 NEIGHBORING CELL REQUIRED FOR INTERPOLATION IS DRY OR INACTIVE (OBS2BAS7SE)
 
 SOLVING FOR HEAD 
                                                   Max.-Head-Change                         Max.-Flux-Residual
  Residual-Control   Outer-Iter.   Inner-Iter.     Column Row Layer    Maximum-Head-Change  Column Row Layer    Maximum-Flux-Residual          L2-NORM 
          0                 1          10            89   51     1      -0.1355886276E+01      89   51    1        -0.4818959745E+05      0.4561202512E+06
          0                 2           9            89   51     1       0.1602944596E+00      89   51    1         0.6876204755E+04      0.4632700556E+05
          0                 3           5            72   60     2       0.9417954499E-02      72   60    2         0.1512074657E+03      0.1680855438E+03

    ------------------------------------------------
       NWT REQUIRED            3 OUTER ITERATIONS 
       AND A TOTAL OF         24 INNER ITERATIONS.
    ------------------------------------------------

 OUTPUT CONTROL FOR STRESS PERIOD   60   TIME STEP   12
    SAVE BUDGET
 UBDSV1 SAVING "         STORAGE" ON UNIT  39 AT TIME STEP 12, STRESS PERIOD  60
 UBDSV2 SAVING "   CONSTANT HEAD" ON UNIT  39 AT TIME STEP 12, STRESS PERIOD  60
 UBDSV1 SAVING "FLOW RIGHT FACE " ON UNIT  39 AT TIME STEP 12, STRESS PERIOD  60
 UBDSV1 SAVING "FLOW FRONT FACE " ON UNIT  39 AT TIME STEP 12, STRESS PERIOD  60
 UBDSV1 SAVING "FLOW LOWER FACE " ON UNIT  39 AT TIME STEP 12, STRESS PERIOD  60
 UBDSV4 SAVING "           WELLS" ON UNIT  39 AT TIME STEP 12, STRESS PERIOD  60
 UBDSV3 SAVING "              ET" ON UNIT  39 AT TIME STEP 12, STRESS PERIOD  60
 UBDSV3 SAVING "        RECHARGE" ON UNIT  39 AT TIME STEP 12, STRESS PERIOD  60

 INTERPOLATION FOR HEAD OBS# 1658, ID 2303-61-4    CHANGED BECAUSE AT LEAST ONE
 NEIGHBORING CELL REQUIRED FOR INTERPOLATION IS DRY OR INACTIVE (OBS2BAS7SE)

 INTERPOLATION FOR HEAD OBS# 5434, ID 846-61-25    CHANGED BECAUSE AT LEAST ONE
 NEIGHBORING CELL REQUIRED FOR INTERPOLATION IS DRY OR INACTIVE (OBS2BAS7SE)
1
  VOLUMETRIC BUDGET FOR ENTIRE MODEL AT END OF TIME STEP   12, STRESS PERIOD  60
  ------------------------------------------------------------------------------

     CUMULATIVE VOLUMES      L**3       RATES FOR THIS TIME STEP      L**3/T
     ------------------                 ------------------------

           IN:                                      IN:
           ---                                      ---
             STORAGE =389017108480.0000               STORAGE =    18767792.0000
       CONSTANT HEAD = 39839825920.0000         CONSTANT HEAD =     2628548.2500
               WELLS = 26859440128.0000                 WELLS =     1225642.0000
                  ET =           0.0000                    ET =           0.0000
            RECHARGE =449675362304.0000              RECHARGE =    19979862.0000

            TOTAL IN =905391767552.0000              TOTAL IN =    42601844.0000

          OUT:                                     OUT:
          ----                                     ----
             STORAGE = 87470104576.0000               STORAGE =     3729374.5000
       CONSTANT HEAD = 67842023424.0000         CONSTANT HEAD =     1677433.0000
               WELLS =727620780032.0000                 WELLS =    36557952.0000
                  ET = 22458365952.0000                    ET =      637093.6875
            RECHARGE =           0.0000              RECHARGE =           0.0000

           TOTAL OUT =905391243264.0000             TOTAL OUT =    42601852.0000

            IN - OUT =      524288.0000              IN - OUT =          -8.0000

 PERCENT DISCREPANCY =           0.00     PERCENT DISCREPANCY =          -0.00






         TIME SUMMARY AT END OF TIME STEP   12 IN STRESS PERIOD   60
                    SECONDS     MINUTES      HOURS       DAYS        YEARS
                    -----------------------------------------------------------
   TIME STEP LENGTH 2.62800E+06  43800.      730.00      30.417     8.32763E-02
 STRESS PERIOD TIME 3.15360E+07 5.25600E+05  8760.0      365.00     0.99932    
         TOTAL TIME 1.89345E+09 3.15575E+07 5.25959E+05  21915.      60.000    
1
1
                            STRESS PERIOD NO.   61, LENGTH =   366.0000    
                            -----------------------------------------------

                              NUMBER OF TIME STEPS =    12

                               MULTIPLIER FOR DELT =     1.000

                            INITIAL TIME STEP SIZE =   30.50000    

   1685 WELLS

 REUSING SURF FROM LAST STRESS PERIOD

 REUSING EVTR FROM LAST STRESS PERIOD

 REUSING EXDP FROM LAST STRESS PERIOD



                           RECHARGE
 READING ON UNIT   16 WITH FORMAT: (15F5.0)            


     63 TIME-VARIANT SPECIFIED-HEAD CELLS
 
 SOLVING FOR HEAD 
                                                   Max.-Head-Change                         Max.-Flux-Residual
  Residual-Control   Outer-Iter.   Inner-Iter.     Column Row Layer    Maximum-Head-Change  Column Row Layer    Maximum-Flux-Residual          L2-NORM 
          0                 1          11            65    2     2       0.9179355891E+02      67   51    2        -0.2061689918E+06      0.1136904613E+07
          0                 2          10            65    7     2      -0.5243495433E+02      65    7    2        -0.1444688701E+07      0.2112561910E+07
          0                 3           7            92   77     2      -0.3306611509E+02      92   77    2        -0.9996418429E+06      0.1002852703E+07
          0                 4           5            91   77     2       0.9836938017E+01      65    3    2        -0.2342585086E+06      0.3746069072E+06
          0                 5           4            91   77     2       0.1496156069E+01      65    3    2        -0.4070073131E+05      0.6497681320E+05
          0                 6           3            65    3     2      -0.2237318183E+00      65    3    2        -0.6978337270E+04      0.1113208254E+05
          0                 7           2            66    5     2       0.4154892247E-01      65    3    2        -0.1192635234E+04      0.1902540620E+04
          0                 8           2            67    4     2       0.1248662715E-01      65    3    2        -0.2036092148E+03      0.3249423480E+03
          0                 9           2            67    4     2       0.3751604309E-02      65    3    2        -0.3473727529E+02      0.5551195621E+02

    ------------------------------------------------
       NWT REQUIRED            9 OUTER ITERATIONS 
       AND A TOTAL OF         46 INNER ITERATIONS.
    ------------------------------------------------

 NO OUTPUT CONTROL FOR STRESS PERIOD   61   TIME STEP    1

 INTERPOLATION FOR HEAD OBS#  639, ID 3014-61-59   CHANGED BECAUSE AT LEAST ONE
 NEIGHBORING CELL REQUIRED FOR INTERPOLATION IS DRY OR INACTIVE (OBS2BAS7SE)

 INTERPOLATION FOR HEAD OBS# 1404, ID 2840-61-56   CHANGED BECAUSE AT LEAST ONE
 NEIGHBORING CELL REQUIRED FOR INTERPOLATION IS DRY OR INACTIVE (OBS2BAS7SE)

 INTERPOLATION FOR HEAD OBS# 1743, ID 2618-61-53   CHANGED BECAUSE AT LEAST ONE
 NEIGHBORING CELL REQUIRED FOR INTERPOLATION IS DRY OR INACTIVE (OBS2BAS7SE)

 INTERPOLATION FOR HEAD OBS# 1855, ID 2604-61-55   CHANGED BECAUSE AT LEAST ONE
 NEIGHBORING CELL REQUIRED FOR INTERPOLATION IS DRY OR INACTIVE (OBS2BAS7SE)

 INTERPOLATION FOR HEAD OBS# 1869, ID 2606-61-55   CHANGED BECAUSE AT LEAST ONE
 NEIGHBORING CELL REQUIRED FOR INTERPOLATION IS DRY OR INACTIVE (OBS2BAS7SE)

 INTERPOLATION FOR HEAD OBS# 2184, ID 2355-61-40   CHANGED BECAUSE AT LEAST ONE
 NEIGHBORING CELL REQUIRED FOR INTERPOLATION IS DRY OR INACTIVE (OBS2BAS7SE)

 INTERPOLATION FOR HEAD OBS# 3201, ID 2443-61-54   CHANGED BECAUSE AT LEAST ONE
 NEIGHBORING CELL REQUIRED FOR INTERPOLATION IS DRY OR INACTIVE (OBS2BAS7SE)

 INTERPOLATION FOR HEAD OBS# 3227, ID 2189-61-55   CHANGED BECAUSE AT LEAST ONE
 NEIGHBORING CELL REQUIRED FOR INTERPOLATION IS DRY OR INACTIVE (OBS2BAS7SE)

 INTERPOLATION FOR HEAD OBS# 5405, ID 1705-61-60   CHANGED BECAUSE AT LEAST ONE
 NEIGHBORING CELL REQUIRED FOR INTERPOLATION IS DRY OR INACTIVE (OBS2BAS7SE)

 INTERPOLATION FOR HEAD OBS# 5409, ID 1530-61-60   CHANGED BECAUSE AT LEAST ONE
 NEIGHBORING CELL REQUIRED FOR INTERPOLATION IS DRY OR INACTIVE (OBS2BAS7SE)

 INTERPOLATION FOR HEAD OBS# 6248, ID 1164-61-60   CHANGED BECAUSE AT LEAST ONE
 NEIGHBORING CELL REQUIRED FOR INTERPOLATION IS DRY OR INACTIVE (OBS2BAS7SE)

 INTERPOLATION FOR HEAD OBS# 7382, ID 451-61-52    CHANGED BECAUSE AT LEAST ONE
 NEIGHBORING CELL REQUIRED FOR INTERPOLATION IS DRY OR INACTIVE (OBS2BAS7SE)

 INTERPOLATION FOR HEAD OBS# 7535, ID 269-61-61    CHANGED BECAUSE AT LEAST ONE
 NEIGHBORING CELL REQUIRED FOR INTERPOLATION IS DRY OR INACTIVE (OBS2BAS7SE)
 
 SOLVING FOR HEAD 
                                                   Max.-Head-Change                         Max.-Flux-Residual
  Residual-Control   Outer-Iter.   Inner-Iter.     Column Row Layer    Maximum-Head-Change  Column Row Layer    Maximum-Flux-Residual          L2-NORM 
          0                 1          11            70   63     3      -0.6773431108E+01      82   72    2        -0.1489231341E+06      0.7904514462E+06
          0                 2          10            36   70     2      -0.5104951286E+01      70   19    1        -0.4297875327E+05      0.9691629973E+05
          0                 3           6            37   70     2       0.7580679314E+00      24   22    2        -0.1346264311E+04      0.2845264442E+04
          0                 4           5            55  100     3       0.2155508891E-01      55  100    3         0.6038027214E+03      0.6126779773E+03
          0                 5           3            55  100     3      -0.6874948344E-02      55  100    3        -0.2111631386E+03      0.2113478769E+03

    ------------------------------------------------
       NWT REQUIRED            5 OUTER ITERATIONS 
       AND A TOTAL OF         35 INNER ITERATIONS.
    ------------------------------------------------

 NO OUTPUT CONTROL FOR STRESS PERIOD   61   TIME STEP    2

 INTERPOLATION FOR HEAD OBS#  198, ID 3228-61-73   CHANGED BECAUSE AT LEAST ONE
 NEIGHBORING CELL REQUIRED FOR INTERPOLATION IS DRY OR INACTIVE (OBS2BAS7SE)
 
 SOLVING FOR HEAD 
                                                   Max.-Head-Change                         Max.-Flux-Residual
  Residual-Control   Outer-Iter.   Inner-Iter.     Column Row Layer    Maximum-Head-Change  Column Row Layer    Maximum-Flux-Residual          L2-NORM 
          0                 1          11            82   72     2      -0.3497428723E+01      82   72    2        -0.1175458950E+06      0.6626705161E+06
          0                 2           9            70   17     1      -0.5264790728E+00      33   25    1        -0.2944648506E+05      0.8301446485E+05
          0                 3           6            55  100     3      -0.2655096512E-01      34   25    2        -0.2188832053E+04      0.2582167001E+04
          0                 4           3            55  100     3       0.1127454628E-01      55  100    3         0.3158748841E+03      0.3170242747E+03
          0                 5           2            55  100     3      -0.3414792355E-02      55  100    3        -0.1048997129E+03      0.1049255246E+03

    ------------------------------------------------
       NWT REQUIRED            5 OUTER ITERATIONS 
       AND A TOTAL OF         31 INNER ITERATIONS.
    ------------------------------------------------

 NO OUTPUT CONTROL FOR STRESS PERIOD   61   TIME STEP    3
 
 SOLVING FOR HEAD 
                                                   Max.-Head-Change                         Max.-Flux-Residual
  Residual-Control   Outer-Iter.   Inner-Iter.     Column Row Layer    Maximum-Head-Change  Column Row Layer    Maximum-Flux-Residual          L2-NORM 
          0                 1          11            71   16     1       0.3293020062E+01      82   72    2        -0.9462392510E+05      0.5871974503E+06
          0                 2           9            67   51     1      -0.4071519365E+01      69   21    1        -0.3183500903E+05      0.7224097119E+05
          0                 3           6            67   51     1       0.3471790937E+00      67   51    1         0.2280535965E+04      0.2552575070E+04
          0                 4           4            55  100     3       0.6253058350E-02      55  100    3         0.1752134394E+03      0.1759624553E+03

    ------------------------------------------------
       NWT REQUIRED            4 OUTER ITERATIONS 
       AND A TOTAL OF         30 INNER ITERATIONS.
    ------------------------------------------------

 NO OUTPUT CONTROL FOR STRESS PERIOD   61   TIME STEP    4
 
 SOLVING FOR HEAD 
                                                   Max.-Head-Change                         Max.-Flux-Residual
  Residual-Control   Outer-Iter.   Inner-Iter.     Column Row Layer    Maximum-Head-Change  Column Row Layer    Maximum-Flux-Residual          L2-NORM 
          0                 1          11            71   16     1       0.3111335077E+01      71   16    1         0.8204864996E+05      0.5367820261E+06
          0                 2           9            71   16     1      -0.2845892585E+00      33   25    2         0.1928855216E+05      0.5860219457E+05
          0                 3           6            33   25     2      -0.1934418537E-01      33   25    2        -0.1868967266E+04      0.2022136762E+04
          0                 4           3            55  100     3       0.3777525407E-02      55  100    3         0.1058599640E+03      0.1060444384E+03

    ------------------------------------------------
       NWT REQUIRED            4 OUTER ITERATIONS 
       AND A TOTAL OF         29 INNER ITERATIONS.
    ------------------------------------------------

 NO OUTPUT CONTROL FOR STRESS PERIOD   61   TIME STEP    5
 
 SOLVING FOR HEAD 
                                                   Max.-Head-Change                         Max.-Flux-Residual
  Residual-Control   Outer-Iter.   Inner-Iter.     Column Row Layer    Maximum-Head-Change  Column Row Layer    Maximum-Flux-Residual          L2-NORM 
          0                 1          11            35   70     2      -0.5246338132E+01      71   16    1         0.7752823730E+05      0.5014238695E+06
          0                 2           9            80   45     1      -0.1963274266E+01      32   27    1        -0.2336020981E+05      0.5752773939E+05
          0                 3           5            80   45     1       0.1441953583E+00      51   37    1        -0.2543665422E+03      0.5069702576E+03
          0                 4           3            80   45     1       0.2520247072E-02      55  100    3         0.6458890904E+02      0.6489332439E+02

    ------------------------------------------------
       NWT REQUIRED            4 OUTER ITERATIONS 
       AND A TOTAL OF         28 INNER ITERATIONS.
    ------------------------------------------------

 NO OUTPUT CONTROL FOR STRESS PERIOD   61   TIME STEP    6
 
 SOLVING FOR HEAD 
                                                   Max.-Head-Change                         Max.-Flux-Residual
  Residual-Control   Outer-Iter.   Inner-Iter.     Column Row Layer    Maximum-Head-Change  Column Row Layer    Maximum-Flux-Residual          L2-NORM 
          0                 1          11            72   62     1      -0.3667869042E+01      71   16    1         0.7327443531E+05      0.4743053781E+06
          0                 2           9            72   62     1       0.2739095743E+00      66   19    1        -0.8543752580E+04      0.4915792685E+05
          0                 3           5            60   51     2      -0.9816841561E-02      60   51    2        -0.3267370557E+03      0.4794949408E+03

    ------------------------------------------------
       NWT REQUIRED            3 OUTER ITERATIONS 
       AND A TOTAL OF         25 INNER ITERATIONS.
    ------------------------------------------------

 NO OUTPUT CONTROL FOR STRESS PERIOD   61   TIME STEP    7
 
 SOLVING FOR HEAD 
                                                   Max.-Head-Change                         Max.-Flux-Residual
  Residual-Control   Outer-Iter.   Inner-Iter.     Column Row Layer    Maximum-Head-Change  Column Row Layer    Maximum-Flux-Residual          L2-NORM 
          0                 1          11            71   16     1       0.2620874821E+01      71   16    1         0.6923892497E+05      0.4532313341E+06
          0                 2           9            58   81     2      -0.1877107655E+01      30   26    1        -0.1414618686E+05      0.4890582608E+05
          0                 3           5            58   81     2       0.1277289399E+00      86   65    2         0.2240275025E+04      0.2286407362E+04
          0                 4           3            86   65     2       0.4933901564E-02      86   65    2         0.2016730666E+03      0.2027847717E+03

    ------------------------------------------------
       NWT REQUIRED            4 OUTER ITERATIONS 
       AND A TOTAL OF         28 INNER ITERATIONS.
    ------------------------------------------------

 NO OUTPUT CONTROL FOR STRESS PERIOD   61   TIME STEP    8
 
 SOLVING FOR HEAD 
                                                   Max.-Head-Change                         Max.-Flux-Residual
  Residual-Control   Outer-Iter.   Inner-Iter.     Column Row Layer    Maximum-Head-Change  Column Row Layer    Maximum-Flux-Residual          L2-NORM 
          0                 1          11            71   16     1       0.2472903487E+01      71   16    1         0.6530863811E+05      0.4361065199E+06
          0                 2           9            73   15     3       0.2780946922E+01      73   15    3         0.2054171452E+05      0.4949799664E+05
          0                 3           6            73   15     3      -0.2521922033E+00      73   15    3        -0.2054171491E+04      0.2284085476E+04
          0                 4           3            72   60     1       0.5626548087E-03      55  100    3         0.1178493183E+02      0.1246017151E+02

    ------------------------------------------------
       NWT REQUIRED            4 OUTER ITERATIONS 
       AND A TOTAL OF         29 INNER ITERATIONS.
    ------------------------------------------------

 NO OUTPUT CONTROL FOR STRESS PERIOD   61   TIME STEP    9
 
 SOLVING FOR HEAD 
                                                   Max.-Head-Change                         Max.-Flux-Residual
  Residual-Control   Outer-Iter.   Inner-Iter.     Column Row Layer    Maximum-Head-Change  Column Row Layer    Maximum-Flux-Residual          L2-NORM 
          0                 1          11            69   63     1      -0.3743473664E+01      71   16    1         0.6163443245E+05      0.4230028332E+06
          0                 2           9            70   19     2       0.6653368552E+00      70   19    2         0.8724019661E+04      0.4475394936E+05
          0                 3           6            70   19     2      -0.6078103949E-01      77   70    1        -0.1161735193E+04      0.1787349945E+04
          0                 4           3            77   70     1      -0.2498493515E-02      77   70    1        -0.1045853627E+03      0.1048473879E+03

    ------------------------------------------------
       NWT REQUIRED            4 OUTER ITERATIONS 
       AND A TOTAL OF         29 INNER ITERATIONS.
    ------------------------------------------------

 NO OUTPUT CONTROL FOR STRESS PERIOD   61   TIME STEP   10
 
 SOLVING FOR HEAD 
                                                   Max.-Head-Change                         Max.-Flux-Residual
  Residual-Control   Outer-Iter.   Inner-Iter.     Column Row Layer    Maximum-Head-Change  Column Row Layer    Maximum-Flux-Residual          L2-NORM 
          0                 1          10            70   19     2       0.4560564715E+01      71   16    1         0.5820387144E+05      0.4122223485E+06
          0                 2           9            86   84     2      -0.1201522638E+01      62   85    1        -0.1987751954E+05      0.4737187818E+05
          0                 3           6            68   10     2       0.5282819462E-01      77   70    1         0.5540797635E+03      0.9705901839E+03
          0                 4           3            68   10     2       0.2874147790E-02      62   64    1        -0.4184729022E+02      0.5655605184E+02

    ------------------------------------------------
       NWT REQUIRED            4 OUTER ITERATIONS 
       AND A TOTAL OF         28 INNER ITERATIONS.
    ------------------------------------------------

 NO OUTPUT CONTROL FOR STRESS PERIOD   61   TIME STEP   11
 
 SOLVING FOR HEAD 
                                                   Max.-Head-Change                         Max.-Flux-Residual
  Residual-Control   Outer-Iter.   Inner-Iter.     Column Row Layer    Maximum-Head-Change  Column Row Layer    Maximum-Flux-Residual          L2-NORM 
          0                 1          10            86   84     2      -0.3626882495E+01      70   19    1         0.6792376444E+05      0.4040830161E+06
          0                 2           9            72   15     2       0.2145760313E+01      72   15    2         0.1882669244E+05      0.4985197795E+05
          0                 3           6            34   69     2      -0.1997268401E+00      34   69    2        -0.6325060477E+04      0.6743632670E+04
          0                 4           4            34   69     2      -0.1799794713E-01      34   69    2        -0.5697989168E+03      0.5698584368E+03
          0                 5           3            34   69     2      -0.1618360996E-02      34   69    2        -0.5122935936E+02      0.5123509225E+02

    ------------------------------------------------
       NWT REQUIRED            5 OUTER ITERATIONS 
       AND A TOTAL OF         32 INNER ITERATIONS.
    ------------------------------------------------

 OUTPUT CONTROL FOR STRESS PERIOD   61   TIME STEP   12
    SAVE BUDGET
    SAVE HEAD FOR LAYERS:   1  2  3
 UBDSV1 SAVING "         STORAGE" ON UNIT  39 AT TIME STEP 12, STRESS PERIOD  61
 UBDSV2 SAVING "   CONSTANT HEAD" ON UNIT  39 AT TIME STEP 12, STRESS PERIOD  61
 UBDSV1 SAVING "FLOW RIGHT FACE " ON UNIT  39 AT TIME STEP 12, STRESS PERIOD  61
 UBDSV1 SAVING "FLOW FRONT FACE " ON UNIT  39 AT TIME STEP 12, STRESS PERIOD  61
 UBDSV1 SAVING "FLOW LOWER FACE " ON UNIT  39 AT TIME STEP 12, STRESS PERIOD  61
 UBDSV4 SAVING "           WELLS" ON UNIT  39 AT TIME STEP 12, STRESS PERIOD  61
 UBDSV3 SAVING "              ET" ON UNIT  39 AT TIME STEP 12, STRESS PERIOD  61
 UBDSV3 SAVING "        RECHARGE" ON UNIT  39 AT TIME STEP 12, STRESS PERIOD  61

 HEAD WILL BE SAVED ON UNIT   31 AT END OF TIME STEP   12, STRESS PERIOD   61
1
  VOLUMETRIC BUDGET FOR ENTIRE MODEL AT END OF TIME STEP   12, STRESS PERIOD  61
  ------------------------------------------------------------------------------

     CUMULATIVE VOLUMES      L**3       RATES FOR THIS TIME STEP      L**3/T
     ------------------                 ------------------------

           IN:                                      IN:
           ---                                      ---
             STORAGE =393747103744.0000               STORAGE =    11393079.0000
       CONSTANT HEAD = 40739495936.0000         CONSTANT HEAD =     2397187.0000
               WELLS = 27308025856.0000                 WELLS =     1225642.0000
                  ET =           0.0000                    ET =           0.0000
            RECHARGE =461805682688.0000              RECHARGE =    33142994.0000

            TOTAL IN =923600289792.0000              TOTAL IN =    48158904.0000

          OUT:                                     OUT:
          ----                                     ----
             STORAGE = 90994204672.0000               STORAGE =     8057779.0000
       CONSTANT HEAD = 68410048512.0000         CONSTANT HEAD =     1468628.3750
               WELLS =741456019456.0000                 WELLS =    37798284.0000
                  ET = 22739576832.0000                    ET =      834219.0000
            RECHARGE =           0.0000              RECHARGE =           0.0000

           TOTAL OUT =923599831040.0000             TOTAL OUT =    48158912.0000

            IN - OUT =      458752.0000              IN - OUT =          -8.0000

 PERCENT DISCREPANCY =           0.00     PERCENT DISCREPANCY =          -0.00






         TIME SUMMARY AT END OF TIME STEP   12 IN STRESS PERIOD   61
                    SECONDS     MINUTES      HOURS       DAYS        YEARS
                    -----------------------------------------------------------
   TIME STEP LENGTH 2.63520E+06  43920.      732.00      30.500     8.35044E-02
 STRESS PERIOD TIME 3.16224E+07 5.27040E+05  8784.0      366.00      1.0021    
         TOTAL TIME 1.92507E+09 3.20846E+07 5.34743E+05  22281.      61.002    
1
1
                            STRESS PERIOD NO.   62, LENGTH =   365.0000    
                            -----------------------------------------------

                              NUMBER OF TIME STEPS =    12

                               MULTIPLIER FOR DELT =     1.000

                            INITIAL TIME STEP SIZE =   30.41667    

   1669 WELLS

 REUSING SURF FROM LAST STRESS PERIOD

 REUSING EVTR FROM LAST STRESS PERIOD

 REUSING EXDP FROM LAST STRESS PERIOD



                           RECHARGE
 READING ON UNIT   16 WITH FORMAT: (15F5.0)            


     63 TIME-VARIANT SPECIFIED-HEAD CELLS
 
 SOLVING FOR HEAD 
                                                   Max.-Head-Change                         Max.-Flux-Residual
  Residual-Control   Outer-Iter.   Inner-Iter.     Column Row Layer    Maximum-Head-Change  Column Row Layer    Maximum-Flux-Residual          L2-NORM 
          0                 1          11            65    2     2      -0.9121255782E+02      30   52    2        -0.4017353758E+06      0.1502545542E+07
          0                 2          10            34   69     2      -0.6321660757E+01      72   54    1        -0.5443344813E+05      0.1848416971E+06
          0                 3           7            34   69     2       0.4127886219E+00      66   25    1         0.3767909903E+04      0.4599526074E+04
          0                 4           3            55  100     3       0.1079404536E-01      55  100    3         0.3033964071E+03      0.3049990780E+03
          0                 5           3            55  100     3      -0.3679237392E-02      55  100    3        -0.1133895693E+03      0.1134077382E+03

    ------------------------------------------------
       NWT REQUIRED            5 OUTER ITERATIONS 
       AND A TOTAL OF         34 INNER ITERATIONS.
    ------------------------------------------------

 NO OUTPUT CONTROL FOR STRESS PERIOD   62   TIME STEP    1
 
 SOLVING FOR HEAD 
                                                   Max.-Head-Change                         Max.-Flux-Residual
  Residual-Control   Outer-Iter.   Inner-Iter.     Column Row Layer    Maximum-Head-Change  Column Row Layer    Maximum-Flux-Residual          L2-NORM 
          0                 1          11            59   85     3       0.8610426430E+01      30   52    2        -0.2301578645E+06      0.1033038964E+07
          0                 2           9            59   84     2      -0.2698229467E+01      59   84    2        -0.7336873245E+05      0.1299813107E+06
          0                 3           6            66   19     1       0.9818631487E-01      60   55    1        -0.5996402167E+04      0.6341333091E+04
          0                 4           4            60   55     1      -0.6173830199E-02      60   55    1        -0.5405587605E+03      0.5659454695E+03

    ------------------------------------------------
       NWT REQUIRED            4 OUTER ITERATIONS 
       AND A TOTAL OF         30 INNER ITERATIONS.
    ------------------------------------------------

 NO OUTPUT CONTROL FOR STRESS PERIOD   62   TIME STEP    2
 
 SOLVING FOR HEAD 
                                                   Max.-Head-Change                         Max.-Flux-Residual
  Residual-Control   Outer-Iter.   Inner-Iter.     Column Row Layer    Maximum-Head-Change  Column Row Layer    Maximum-Flux-Residual          L2-NORM 
          0                 1          10            59   84     3       0.6598286021E+01      30   52    2        -0.1540602113E+06      0.8579328572E+06
          0                 2           9            92   77     2      -0.1237526024E+02      33   24    1        -0.2992470305E+05      0.9694518775E+05
          0                 3           6            65    6     2       0.3864009445E+00      69   21    1         0.1607921907E+04      0.2335491108E+04
          0                 4           4            65    6     2       0.1578344211E-01      55  100    3         0.1026274689E+03      0.1044652571E+03
          0                 5           3            55  100     3      -0.1197116521E-02      55  100    3        -0.3689552372E+02      0.3692681553E+02

    ------------------------------------------------
       NWT REQUIRED            5 OUTER ITERATIONS 
       AND A TOTAL OF         32 INNER ITERATIONS.
    ------------------------------------------------

 NO OUTPUT CONTROL FOR STRESS PERIOD   62   TIME STEP    3
 
 SOLVING FOR HEAD 
                                                   Max.-Head-Change                         Max.-Flux-Residual
  Residual-Control   Outer-Iter.   Inner-Iter.     Column Row Layer    Maximum-Head-Change  Column Row Layer    Maximum-Flux-Residual          L2-NORM 
          0                 1          10            92   77     2      -0.8474859295E+02      30   52    2        -0.1108869844E+06      0.7605446568E+06
          0                 2           9            92   77     2       0.1710001247E+02      72   15    2         0.2560478220E+05      0.8575529152E+05
          0                 3           6            92   77     2       0.7420861643E+00      70   55    2        -0.6274966317E+03      0.1212918283E+04
          0                 4           3            92   77     2       0.3080838623E-01      55  100    3         0.5938712072E+02      0.6336008872E+02
          0                 5           3            92   77     2       0.1283997229E-02      55  100    3        -0.2113857786E+02      0.2116436807E+02

    ------------------------------------------------
       NWT REQUIRED            5 OUTER ITERATIONS 
       AND A TOTAL OF         31 INNER ITERATIONS.
    ------------------------------------------------

 NO OUTPUT CONTROL FOR STRESS PERIOD   62   TIME STEP    4
 
 SOLVING FOR HEAD 
                                                   Max.-Head-Change                         Max.-Flux-Residual
  Residual-Control   Outer-Iter.   Inner-Iter.     Column Row Layer    Maximum-Head-Change  Column Row Layer    Maximum-Flux-Residual          L2-NORM 
          0                 1          10            29   52     2      -0.3304446648E+01      30   52    2        -0.8428262261E+05      0.6992355767E+06
          0                 2           9            65    3     2      -0.2247447230E+02      70   19    2         0.2035499978E+05      0.8008304497E+05
          0                 3           6            65    3     2       0.8231645954E+00      36   24    2        -0.9824075864E+03      0.1423186521E+04
          0                 4           3            65    3     2       0.4330319335E-01      55  100    3         0.3483285557E+02      0.4267760607E+02
          0                 5           3            65    3     2       0.2274100843E-02      55  100    3        -0.1232467421E+02      0.1239378683E+02

    ------------------------------------------------
       NWT REQUIRED            5 OUTER ITERATIONS 
       AND A TOTAL OF         31 INNER ITERATIONS.
    ------------------------------------------------

 NO OUTPUT CONTROL FOR STRESS PERIOD   62   TIME STEP    5
 
 SOLVING FOR HEAD 
                                                   Max.-Head-Change                         Max.-Flux-Residual
  Residual-Control   Outer-Iter.   Inner-Iter.     Column Row Layer    Maximum-Head-Change  Column Row Layer    Maximum-Flux-Residual          L2-NORM 
          0                 1          10            65    3     2      -0.7083270540E+01      29   52    2        -0.6905309061E+05      0.6554809819E+06
          0                 2           9            65    5     2      -0.2073351224E+02      32   25    1        -0.2393484315E+05      0.7247269869E+05
          0                 3           6            65    5     2       0.9370385077E+00      65    5    2         0.5330137842E+03      0.8587824497E+03
          0                 4           4            65    5     2       0.4205891058E-01      65    5    2         0.2374771368E+02      0.3657677865E+02
          0                 5           3            65    5     2       0.1884032545E-02      55  100    3        -0.7257526513E+01      0.7484152764E+01

    ------------------------------------------------
       NWT REQUIRED            5 OUTER ITERATIONS 
       AND A TOTAL OF         32 INNER ITERATIONS.
    ------------------------------------------------

 NO OUTPUT CONTROL FOR STRESS PERIOD   62   TIME STEP    6
 
 SOLVING FOR HEAD 
                                                   Max.-Head-Change                         Max.-Flux-Residual
  Residual-Control   Outer-Iter.   Inner-Iter.     Column Row Layer    Maximum-Head-Change  Column Row Layer    Maximum-Flux-Residual          L2-NORM 
          0                 1          11            65    5     2      -0.1242020915E+02      84   52    1        -0.6361050081E+05      0.6227504309E+06
          0                 2           9            72   59     1      -0.8931328015E+00      84   52    1         0.6303643793E+04      0.6339044275E+05
          0                 3           6            72   59     1       0.7473413238E-01      60   94    2        -0.2029377872E+04      0.2095424501E+04
          0                 4           4            60   94     1      -0.4441149530E-02      60   94    2        -0.1827581571E+03      0.1834808696E+03

    ------------------------------------------------
       NWT REQUIRED            4 OUTER ITERATIONS 
       AND A TOTAL OF         30 INNER ITERATIONS.
    ------------------------------------------------

 NO OUTPUT CONTROL FOR STRESS PERIOD   62   TIME STEP    7
 
 SOLVING FOR HEAD 
                                                   Max.-Head-Change                         Max.-Flux-Residual
  Residual-Control   Outer-Iter.   Inner-Iter.     Column Row Layer    Maximum-Head-Change  Column Row Layer    Maximum-Flux-Residual          L2-NORM 
          0                 1          11            29   52     2      -0.2008575991E+01      84   52    1        -0.5995354528E+05      0.5969879806E+06
          0                 2           9            60   94     2      -0.1399581167E+01      62   90    2         0.1951246694E+05      0.6797538471E+05
          0                 3           6            60   94     2       0.1098643789E+00      59   67    1        -0.6071940906E+04      0.7400800554E+04
          0                 4           4            59   67     1      -0.5562603942E-02      59   67    1        -0.5469230244E+03      0.6636183954E+03

    ------------------------------------------------
       NWT REQUIRED            4 OUTER ITERATIONS 
       AND A TOTAL OF         30 INNER ITERATIONS.
    ------------------------------------------------

 NO OUTPUT CONTROL FOR STRESS PERIOD   62   TIME STEP    8
 
 SOLVING FOR HEAD 
                                                   Max.-Head-Change                         Max.-Flux-Residual
  Residual-Control   Outer-Iter.   Inner-Iter.     Column Row Layer    Maximum-Head-Change  Column Row Layer    Maximum-Flux-Residual          L2-NORM 
          0                 1          11            29   52     2      -0.1736948805E+01      84   52    1        -0.5674186439E+05      0.5763907049E+06
          0                 2           9            63   57     1      -0.6071617441E+00      69   52    2         0.1291254938E+05      0.6195738673E+05
          0                 3           6            63   57     1       0.5307902346E-01      69   52    2        -0.1291150820E+04      0.2015263106E+04
          0                 4           3            85   85     2      -0.1897910637E-03      71   98    2        -0.1419509016E+03      0.1422665399E+03

    ------------------------------------------------
       NWT REQUIRED            4 OUTER ITERATIONS 
       AND A TOTAL OF         29 INNER ITERATIONS.
    ------------------------------------------------

 NO OUTPUT CONTROL FOR STRESS PERIOD   62   TIME STEP    9
 
 SOLVING FOR HEAD 
                                                   Max.-Head-Change                         Max.-Flux-Residual
  Residual-Control   Outer-Iter.   Inner-Iter.     Column Row Layer    Maximum-Head-Change  Column Row Layer    Maximum-Flux-Residual          L2-NORM 
          0                 1          11            29   52     2      -0.1517771437E+01      84   52    1        -0.5390470868E+05      0.5599622707E+06
          0                 2           9            35   69     2      -0.7199287888E+01      70   62    2         0.7876292233E+04      0.5775875503E+05
          0                 3           6            35   69     2       0.4542875058E+00      52   45    1        -0.6007032101E+04      0.6070761800E+04
          0                 4           4            35   69     2       0.1254690148E-01      52   45    1        -0.5411422314E+03      0.6059049386E+03
          0                 5           3            71   98     2       0.8222563672E-03      52   45    1        -0.4865278432E+02      0.5603297360E+02

    ------------------------------------------------
       NWT REQUIRED            5 OUTER ITERATIONS 
       AND A TOTAL OF         33 INNER ITERATIONS.
    ------------------------------------------------

 NO OUTPUT CONTROL FOR STRESS PERIOD   62   TIME STEP   10
 
 SOLVING FOR HEAD 
                                                   Max.-Head-Change                         Max.-Flux-Residual
  Residual-Control   Outer-Iter.   Inner-Iter.     Column Row Layer    Maximum-Head-Change  Column Row Layer    Maximum-Flux-Residual          L2-NORM 
          0                 1          11            36   69     2      -0.7110760492E+01      84   52    1        -0.5138564304E+05      0.5463383886E+06
          0                 2           9            70   19     1      -0.5912803815E+00      32   25    2         0.1976293449E+05      0.5891662384E+05
          0                 3           6            70   19     1       0.5155329605E-01      32   25    2        -0.1956424875E+04      0.2261735213E+04
          0                 4           3            28   64     1       0.6147147778E-03      43   32    1        -0.5364318371E+01      0.6484458530E+01

    ------------------------------------------------
       NWT REQUIRED            4 OUTER ITERATIONS 
       AND A TOTAL OF         29 INNER ITERATIONS.
    ------------------------------------------------

 NO OUTPUT CONTROL FOR STRESS PERIOD   62   TIME STEP   11
 
 SOLVING FOR HEAD 
                                                   Max.-Head-Change                         Max.-Flux-Residual
  Residual-Control   Outer-Iter.   Inner-Iter.     Column Row Layer    Maximum-Head-Change  Column Row Layer    Maximum-Flux-Residual          L2-NORM 
          0                 1          11            70   19     1      -0.3442022746E+01      84   52    1        -0.4913844678E+05      0.5347904745E+06
          0                 2           9            34   68     2      -0.7845806721E+01      72   15    1        -0.1086195532E+05      0.5678813527E+05
          0                 3           6            34   68     2       0.5422975823E+00      61   43    1         0.2385459338E+04      0.3360229192E+04
          0                 4           4            34   68     2       0.1177083343E-01      61   44    1        -0.6916010850E+02      0.7343237614E+02
          0                 5           2            34   68     2       0.2542951965E-03      61   44    1        -0.5581624422E+01      0.5622095058E+01

    ------------------------------------------------
       NWT REQUIRED            5 OUTER ITERATIONS 
       AND A TOTAL OF         32 INNER ITERATIONS.
    ------------------------------------------------

 OUTPUT CONTROL FOR STRESS PERIOD   62   TIME STEP   12
    SAVE BUDGET
 UBDSV1 SAVING "         STORAGE" ON UNIT  39 AT TIME STEP 12, STRESS PERIOD  62
 UBDSV2 SAVING "   CONSTANT HEAD" ON UNIT  39 AT TIME STEP 12, STRESS PERIOD  62
 UBDSV1 SAVING "FLOW RIGHT FACE " ON UNIT  39 AT TIME STEP 12, STRESS PERIOD  62
 UBDSV1 SAVING "FLOW FRONT FACE " ON UNIT  39 AT TIME STEP 12, STRESS PERIOD  62
 UBDSV1 SAVING "FLOW LOWER FACE " ON UNIT  39 AT TIME STEP 12, STRESS PERIOD  62
 UBDSV4 SAVING "           WELLS" ON UNIT  39 AT TIME STEP 12, STRESS PERIOD  62
 UBDSV3 SAVING "              ET" ON UNIT  39 AT TIME STEP 12, STRESS PERIOD  62
 UBDSV3 SAVING "        RECHARGE" ON UNIT  39 AT TIME STEP 12, STRESS PERIOD  62
1
  VOLUMETRIC BUDGET FOR ENTIRE MODEL AT END OF TIME STEP   12, STRESS PERIOD  62
  ------------------------------------------------------------------------------

     CUMULATIVE VOLUMES      L**3       RATES FOR THIS TIME STEP      L**3/T
     ------------------                 ------------------------

           IN:                                      IN:
           ---                                      ---
             STORAGE =401759404032.0000               STORAGE =    20804848.0000
       CONSTANT HEAD = 41652817920.0000         CONSTANT HEAD =     2530858.7500
               WELLS = 27755382784.0000                 WELLS =     1225642.0000
                  ET =           0.0000                    ET =           0.0000
            RECHARGE =468935081984.0000              RECHARGE =    19532334.0000

            TOTAL IN =940102647808.0000              TOTAL IN =    44093680.0000

          OUT:                                     OUT:
          ----                                     ----
             STORAGE = 93263872000.0000               STORAGE =     5196711.5000
       CONSTANT HEAD = 69053833216.0000         CONSTANT HEAD =     1817141.3750
               WELLS =754838994944.0000                 WELLS =    36653524.0000
                  ET = 22945347584.0000                    ET =      426306.9688
            RECHARGE =           0.0000              RECHARGE =           0.0000

           TOTAL OUT =940102057984.0000             TOTAL OUT =    44093684.0000

            IN - OUT =      589824.0000              IN - OUT =          -4.0000

 PERCENT DISCREPANCY =           0.00     PERCENT DISCREPANCY =          -0.00






         TIME SUMMARY AT END OF TIME STEP   12 IN STRESS PERIOD   62
                    SECONDS     MINUTES      HOURS       DAYS        YEARS
                    -----------------------------------------------------------
   TIME STEP LENGTH 2.62800E+06  43800.      730.00      30.417     8.32763E-02
 STRESS PERIOD TIME 3.15360E+07 5.25600E+05  8760.0      365.00     0.99932    
         TOTAL TIME 1.95661E+09 3.26102E+07 5.43503E+05  22646.      62.001    
1
1
                            STRESS PERIOD NO.   63, LENGTH =   365.0000    
                            -----------------------------------------------

                              NUMBER OF TIME STEPS =    12

                               MULTIPLIER FOR DELT =     1.000

                            INITIAL TIME STEP SIZE =   30.41667    

   1621 WELLS

 REUSING SURF FROM LAST STRESS PERIOD

 REUSING EVTR FROM LAST STRESS PERIOD

 REUSING EXDP FROM LAST STRESS PERIOD



                           RECHARGE
 READING ON UNIT   16 WITH FORMAT: (15F5.0)            


     63 TIME-VARIANT SPECIFIED-HEAD CELLS
 
 SOLVING FOR HEAD 
                                                   Max.-Head-Change                         Max.-Flux-Residual
  Residual-Control   Outer-Iter.   Inner-Iter.     Column Row Layer    Maximum-Head-Change  Column Row Layer    Maximum-Flux-Residual          L2-NORM 
          0                 1          12            86   55     3       0.4314621047E+02      29   53    3        -0.3546377850E+06      0.1439441525E+07
          0                 2          10            54  116     3      -0.3030525549E+01      74   64    2         0.4756615468E+05      0.1674102647E+06
          0                 3           7            63   93     1      -0.9002980938E-01      63   93    1        -0.4808911380E+04      0.5024422152E+04
          0                 4           4            63   93     1      -0.8141056945E-02      63   93    1        -0.4344881307E+03      0.4620972928E+03

    ------------------------------------------------
       NWT REQUIRED            4 OUTER ITERATIONS 
       AND A TOTAL OF         33 INNER ITERATIONS.
    ------------------------------------------------

 NO OUTPUT CONTROL FOR STRESS PERIOD   63   TIME STEP    1
 
 SOLVING FOR HEAD 
                                                   Max.-Head-Change                         Max.-Flux-Residual
  Residual-Control   Outer-Iter.   Inner-Iter.     Column Row Layer    Maximum-Head-Change  Column Row Layer    Maximum-Flux-Residual          L2-NORM 
          0                 1          11            80   54     3       0.8565881951E+01      33   27    1         0.2138033190E+06      0.9615231512E+06
          0                 2          10            33   67     2      -0.5532607466E+01      33   27    1        -0.2308988964E+05      0.9978073105E+05
          0                 3           6            33   67     2       0.2657610351E+00      59   74    1        -0.1618033655E+04      0.2302145912E+04
          0                 4           4            33   67     1       0.1152092679E-01      59   74    1        -0.1456773425E+03      0.1840243789E+03
          0                 5           3            55  100     3       0.1026092329E-02      55  100    3         0.3162616099E+02      0.3426401378E+02

    ------------------------------------------------
       NWT REQUIRED            5 OUTER ITERATIONS 
       AND A TOTAL OF         34 INNER ITERATIONS.
    ------------------------------------------------

 NO OUTPUT CONTROL FOR STRESS PERIOD   63   TIME STEP    2
 
 SOLVING FOR HEAD 
                                                   Max.-Head-Change                         Max.-Flux-Residual
  Residual-Control   Outer-Iter.   Inner-Iter.     Column Row Layer    Maximum-Head-Change  Column Row Layer    Maximum-Flux-Residual          L2-NORM 
          0                 1          11            28   52     2      -0.3964364698E+01      33   27    1         0.1423728860E+06      0.8313906147E+06
          0                 2          10            89   67     2       0.4579312725E+00      89   67    2         0.1898091593E+05      0.8617753845E+05
          0                 3           6            59   74     1       0.1235292820E-01      14   12    2        -0.4535100675E+03      0.6641893444E+03
          0                 4           3            55  100     3      -0.2740960411E-02      55  100    3        -0.7705423968E+02      0.7711255962E+02

    ------------------------------------------------
       NWT REQUIRED            4 OUTER ITERATIONS 
       AND A TOTAL OF         30 INNER ITERATIONS.
    ------------------------------------------------

 NO OUTPUT CONTROL FOR STRESS PERIOD   63   TIME STEP    3
 
 SOLVING FOR HEAD 
                                                   Max.-Head-Change                         Max.-Flux-Residual
  Residual-Control   Outer-Iter.   Inner-Iter.     Column Row Layer    Maximum-Head-Change  Column Row Layer    Maximum-Flux-Residual          L2-NORM 
          0                 1          11            28   52     2      -0.3442173145E+01      61   85    2         0.1049327165E+06      0.7669251324E+06
          0                 2          10            84   52     2       0.7016470007E+00      84   52    2         0.3224677053E+05      0.8648082272E+05
          0                 3           6            32   49     2       0.9393503588E-02      30   25    2        -0.9804091523E+03      0.1116157083E+04

    ------------------------------------------------
       NWT REQUIRED            3 OUTER ITERATIONS 
       AND A TOTAL OF         27 INNER ITERATIONS.
    ------------------------------------------------

 NO OUTPUT CONTROL FOR STRESS PERIOD   63   TIME STEP    4
 
 SOLVING FOR HEAD 
                                                   Max.-Head-Change                         Max.-Flux-Residual
  Residual-Control   Outer-Iter.   Inner-Iter.     Column Row Layer    Maximum-Head-Change  Column Row Layer    Maximum-Flux-Residual          L2-NORM 
          0                 1          11            61   85     1       0.3211379288E+01      61   85    2         0.1027530692E+06      0.7271464913E+06
          0                 2          10            30   80     2      -0.4241740340E+00      44   31    2         0.1546998928E+05      0.7682699898E+05
          0                 3           6            30   80     2       0.3041627071E-01      60   54    1         0.3985544018E+03      0.4301437660E+03
          0                 4           2            55  100     3      -0.1232064768E-02      55  100    3        -0.3463371955E+02      0.3466243600E+02

    ------------------------------------------------
       NWT REQUIRED            4 OUTER ITERATIONS 
       AND A TOTAL OF         29 INNER ITERATIONS.
    ------------------------------------------------

 NO OUTPUT CONTROL FOR STRESS PERIOD   63   TIME STEP    5
 
 SOLVING FOR HEAD 
                                                   Max.-Head-Change                         Max.-Flux-Residual
  Residual-Control   Outer-Iter.   Inner-Iter.     Column Row Layer    Maximum-Head-Change  Column Row Layer    Maximum-Flux-Residual          L2-NORM 
          0                 1          11            61   85     1       0.3069099430E+01      61   85    2         0.9966265998E+05      0.6992306169E+06
          0                 2          10            92   67     1      -0.3094213761E+01      92   67    1        -0.1510486510E+05      0.7461491503E+05
          0                 3           6            92   67     1       0.2570774188E+00      92   67    1         0.1382553177E+04      0.1581968494E+04
          0                 4           3            57   27     2       0.2871831118E-02      55  100    3        -0.2555887209E+02      0.3789244775E+02

    ------------------------------------------------
       NWT REQUIRED            4 OUTER ITERATIONS 
       AND A TOTAL OF         30 INNER ITERATIONS.
    ------------------------------------------------

 NO OUTPUT CONTROL FOR STRESS PERIOD   63   TIME STEP    6
 
 SOLVING FOR HEAD 
                                                   Max.-Head-Change                         Max.-Flux-Residual
  Residual-Control   Outer-Iter.   Inner-Iter.     Column Row Layer    Maximum-Head-Change  Column Row Layer    Maximum-Flux-Residual          L2-NORM 
          0                 1          11            77   46     1      -0.5984608737E+01      61   85    2         0.9595020771E+05      0.6775364454E+06
          0                 2          10            31   70     2      -0.2512726748E+01      33   23    1        -0.2541574129E+05      0.7630063120E+05
          0                 3           6            31   70     2       0.1851754142E+00      72   63    1        -0.2340092117E+04      0.3250646728E+04
          0                 4           4            72   63     1      -0.7450179732E-02      72   63    1        -0.2108084872E+03      0.2120281569E+03

    ------------------------------------------------
       NWT REQUIRED            4 OUTER ITERATIONS 
       AND A TOTAL OF         31 INNER ITERATIONS.
    ------------------------------------------------

 NO OUTPUT CONTROL FOR STRESS PERIOD   63   TIME STEP    7
 
 SOLVING FOR HEAD 
                                                   Max.-Head-Change                         Max.-Flux-Residual
  Residual-Control   Outer-Iter.   Inner-Iter.     Column Row Layer    Maximum-Head-Change  Column Row Layer    Maximum-Flux-Residual          L2-NORM 
          0                 1          11            61   85     1       0.2762835687E+01      61   85    2         0.9196602275E+05      0.6606675479E+06
          0                 2          10            72   63     1      -0.2745262253E+01      34   24    1        -0.2559979499E+05      0.7878716549E+05
          0                 3           7            72   63     1       0.2235534785E+00      37   24    2         0.3364332160E+04      0.3449988694E+04
          0                 4           5            37   69     2       0.4290863671E-02      37   24    2         0.3027273482E+03      0.3243412526E+03

    ------------------------------------------------
       NWT REQUIRED            4 OUTER ITERATIONS 
       AND A TOTAL OF         33 INNER ITERATIONS.
    ------------------------------------------------

 NO OUTPUT CONTROL FOR STRESS PERIOD   63   TIME STEP    8
 
 SOLVING FOR HEAD 
                                                   Max.-Head-Change                         Max.-Flux-Residual
  Residual-Control   Outer-Iter.   Inner-Iter.     Column Row Layer    Maximum-Head-Change  Column Row Layer    Maximum-Flux-Residual          L2-NORM 
          0                 1          11            37   69     2      -0.3143344805E+01      61   85    2         0.8768048707E+05      0.6452705214E+06
          0                 2          10            25   54     3       0.2675784558E+00      54   41    2         0.1866531680E+05      0.7036339137E+05
          0                 3           7            53   40     1      -0.3510033830E-01      34   24    2         0.3398999844E+04      0.4611031547E+04
          0                 4           6            53   40     1      -0.3162675911E-02      34   24    2         0.3058674862E+03      0.4579722237E+03

    ------------------------------------------------
       NWT REQUIRED            4 OUTER ITERATIONS 
       AND A TOTAL OF         34 INNER ITERATIONS.
    ------------------------------------------------

 NO OUTPUT CONTROL FOR STRESS PERIOD   63   TIME STEP    9
 
 SOLVING FOR HEAD 
                                                   Max.-Head-Change                         Max.-Flux-Residual
  Residual-Control   Outer-Iter.   Inner-Iter.     Column Row Layer    Maximum-Head-Change  Column Row Layer    Maximum-Flux-Residual          L2-NORM 
          0                 1          11            75   47     1      -0.2932292663E+01      61   85    2         0.8335151673E+05      0.6313657260E+06
          0                 2          10            53   40     1      -0.1332275588E+01      34   24    2         0.2589610839E+05      0.7369579999E+05
          0                 3           6            53   40     1       0.1168617621E+00      34   24    2        -0.2580335529E+04      0.3726593514E+04
          0                 4           4            26   54     2      -0.7283791257E-03      71   97    2        -0.3321283266E+03      0.3345715238E+03

    ------------------------------------------------
       NWT REQUIRED            4 OUTER ITERATIONS 
       AND A TOTAL OF         31 INNER ITERATIONS.
    ------------------------------------------------

 NO OUTPUT CONTROL FOR STRESS PERIOD   63   TIME STEP   10
 
 SOLVING FOR HEAD 
                                                   Max.-Head-Change                         Max.-Flux-Residual
  Residual-Control   Outer-Iter.   Inner-Iter.     Column Row Layer    Maximum-Head-Change  Column Row Layer    Maximum-Flux-Residual          L2-NORM 
          0                 1          11            61   85     1       0.2329809661E+01      61   85    2         0.7909152927E+05      0.6206384003E+06
          0                 2          10            69   47     1      -0.2182658283E+01      33   22    1        -0.1730004466E+05      0.6904049789E+05
          0                 3           6            69   47     1       0.1837477940E+00      69   47    1         0.1139559888E+04      0.2028468649E+04
          0                 4           4            71   97     2      -0.1450314535E-01      71   97    2        -0.4365305001E+03      0.4415985687E+03
          0                 5           3            71   97     2       0.1318452800E-02      71   97    2         0.4403098111E+02      0.4471802557E+02

    ------------------------------------------------
       NWT REQUIRED            5 OUTER ITERATIONS 
       AND A TOTAL OF         34 INNER ITERATIONS.
    ------------------------------------------------

 NO OUTPUT CONTROL FOR STRESS PERIOD   63   TIME STEP   11
 
 SOLVING FOR HEAD 
                                                   Max.-Head-Change                         Max.-Flux-Residual
  Residual-Control   Outer-Iter.   Inner-Iter.     Column Row Layer    Maximum-Head-Change  Column Row Layer    Maximum-Flux-Residual          L2-NORM 
          0                 1          11            83   52     1      -0.1139542153E+02      61   85    2         0.7496963477E+05      0.6102248272E+06
          0                 2           9            87   52     1      -0.8719132907E+00      87   52    1        -0.1113839132E+05      0.6414151621E+05
          0                 3           6            87   52     1       0.7688532676E-01      87   52    1         0.1079251699E+04      0.1192177240E+04
          0                 4           4            55  100     3      -0.3011882656E-03      44   32    1        -0.1191836900E+02      0.1492384347E+02

    ------------------------------------------------
       NWT REQUIRED            4 OUTER ITERATIONS 
       AND A TOTAL OF         30 INNER ITERATIONS.
    ------------------------------------------------

 OUTPUT CONTROL FOR STRESS PERIOD   63   TIME STEP   12
    SAVE BUDGET
 UBDSV1 SAVING "         STORAGE" ON UNIT  39 AT TIME STEP 12, STRESS PERIOD  63
 UBDSV2 SAVING "   CONSTANT HEAD" ON UNIT  39 AT TIME STEP 12, STRESS PERIOD  63
 UBDSV1 SAVING "FLOW RIGHT FACE " ON UNIT  39 AT TIME STEP 12, STRESS PERIOD  63
 UBDSV1 SAVING "FLOW FRONT FACE " ON UNIT  39 AT TIME STEP 12, STRESS PERIOD  63
 UBDSV1 SAVING "FLOW LOWER FACE " ON UNIT  39 AT TIME STEP 12, STRESS PERIOD  63
 UBDSV4 SAVING "           WELLS" ON UNIT  39 AT TIME STEP 12, STRESS PERIOD  63
 UBDSV3 SAVING "              ET" ON UNIT  39 AT TIME STEP 12, STRESS PERIOD  63
 UBDSV3 SAVING "        RECHARGE" ON UNIT  39 AT TIME STEP 12, STRESS PERIOD  63
1
  VOLUMETRIC BUDGET FOR ENTIRE MODEL AT END OF TIME STEP   12, STRESS PERIOD  63
  ------------------------------------------------------------------------------

     CUMULATIVE VOLUMES      L**3       RATES FOR THIS TIME STEP      L**3/T
     ------------------                 ------------------------

           IN:                                      IN:
           ---                                      ---
             STORAGE =410005536768.0000               STORAGE =    21781316.0000
       CONSTANT HEAD = 42587901952.0000         CONSTANT HEAD =     2548237.5000
               WELLS = 28202739712.0000                 WELLS =     1225642.0000
                  ET =           0.0000                    ET =           0.0000
            RECHARGE =476406972416.0000              RECHARGE =    20470828.0000

            TOTAL IN =957203152896.0000              TOTAL IN =    46026024.0000

          OUT:                                     OUT:
          ----                                     ----
             STORAGE = 96149159936.0000               STORAGE =     7178153.0000
       CONSTANT HEAD = 69724102656.0000         CONSTANT HEAD =     1837470.0000
               WELLS =768285868032.0000                 WELLS =    36832428.0000
                  ET = 23043414016.0000                    ET =      177969.5469
            RECHARGE =           0.0000              RECHARGE =           0.0000

           TOTAL OUT =957202563072.0000             TOTAL OUT =    46026016.0000

            IN - OUT =      589824.0000              IN - OUT =           8.0000

 PERCENT DISCREPANCY =           0.00     PERCENT DISCREPANCY =           0.00






         TIME SUMMARY AT END OF TIME STEP   12 IN STRESS PERIOD   63
                    SECONDS     MINUTES      HOURS       DAYS        YEARS
                    -----------------------------------------------------------
   TIME STEP LENGTH 2.62800E+06  43800.      730.00      30.417     8.32763E-02
 STRESS PERIOD TIME 3.15360E+07 5.25600E+05  8760.0      365.00     0.99932    
         TOTAL TIME 1.98815E+09 3.31358E+07 5.52263E+05  23011.      63.001    
1
1
                            STRESS PERIOD NO.   64, LENGTH =   365.0000    
                            -----------------------------------------------

                              NUMBER OF TIME STEPS =    12

                               MULTIPLIER FOR DELT =     1.000

                            INITIAL TIME STEP SIZE =   30.41667    

   1566 WELLS

 REUSING SURF FROM LAST STRESS PERIOD

 REUSING EVTR FROM LAST STRESS PERIOD

 REUSING EXDP FROM LAST STRESS PERIOD



                           RECHARGE
 READING ON UNIT   16 WITH FORMAT: (15F5.0)            


     63 TIME-VARIANT SPECIFIED-HEAD CELLS
 
 SOLVING FOR HEAD 
                                                   Max.-Head-Change                         Max.-Flux-Residual
  Residual-Control   Outer-Iter.   Inner-Iter.     Column Row Layer    Maximum-Head-Change  Column Row Layer    Maximum-Flux-Residual          L2-NORM 
          0                 1          12            65    2     2       0.9173035306E+02      29   52    3        -0.7108579518E+06      0.1652754908E+07
          0                 2          10            65    5     2      -0.1927122542E+02      65    5    2        -0.5117675865E+06      0.8038933923E+06
          0                 3           7            66    5     2       0.2124899944E+01      69   21    1        -0.7459610395E+04      0.9710346373E+04
          0                 4           5            66    5     2       0.3223928521E+00      65    4    2         0.2197070870E+03      0.3354298133E+03
          0                 5           3            66    5     2       0.4841270431E-01      66    5    2         0.2024928534E+02      0.3588962875E+02
          0                 6           2            66    5     2       0.7265497567E-02      66    5    2         0.3038666284E+01      0.4310832542E+01

    ------------------------------------------------
       NWT REQUIRED            6 OUTER ITERATIONS 
       AND A TOTAL OF         39 INNER ITERATIONS.
    ------------------------------------------------

 NO OUTPUT CONTROL FOR STRESS PERIOD   64   TIME STEP    1
 
 SOLVING FOR HEAD 
                                                   Max.-Head-Change                         Max.-Flux-Residual
  Residual-Control   Outer-Iter.   Inner-Iter.     Column Row Layer    Maximum-Head-Change  Column Row Layer    Maximum-Flux-Residual          L2-NORM 
          0                 1          11            29   51     2       0.1181660575E+02      29   51    2         0.3355383797E+06      0.9492181628E+06
          0                 2          10            29   51     2      -0.1220526804E+01      29   51    2        -0.4105616236E+05      0.1035190950E+06
          0                 3           6            78   52     1       0.6057335250E-01      61   82    2        -0.1445122691E+04      0.1745865453E+04
          0                 4           4            55  100     3      -0.2057514353E-02      55  100    3        -0.5794220999E+02      0.5918362542E+02

    ------------------------------------------------
       NWT REQUIRED            4 OUTER ITERATIONS 
       AND A TOTAL OF         31 INNER ITERATIONS.
    ------------------------------------------------

 NO OUTPUT CONTROL FOR STRESS PERIOD   64   TIME STEP    2
 
 SOLVING FOR HEAD 
                                                   Max.-Head-Change                         Max.-Flux-Residual
  Residual-Control   Outer-Iter.   Inner-Iter.     Column Row Layer    Maximum-Head-Change  Column Row Layer    Maximum-Flux-Residual          L2-NORM 
          0                 1          11            29   51     2       0.8273163959E+01      29   51    2         0.2427386495E+06      0.7950725674E+06
          0                 2           9            73   15     3       0.1162208436E+01      29   51    2        -0.3179639780E+05      0.8659381940E+05
          0                 3           6            73   15     3      -0.1054638183E+00      73   15    3        -0.9227852730E+03      0.1378013895E+04
          0                 4           4            55  100     3      -0.1908685315E-02      55  100    3        -0.5374651740E+02      0.5432126096E+02

    ------------------------------------------------
       NWT REQUIRED            4 OUTER ITERATIONS 
       AND A TOTAL OF         30 INNER ITERATIONS.
    ------------------------------------------------

 NO OUTPUT CONTROL FOR STRESS PERIOD   64   TIME STEP    3
 
 SOLVING FOR HEAD 
                                                   Max.-Head-Change                         Max.-Flux-Residual
  Residual-Control   Outer-Iter.   Inner-Iter.     Column Row Layer    Maximum-Head-Change  Column Row Layer    Maximum-Flux-Residual          L2-NORM 
          0                 1          11            29   51     2       0.5569363205E+01      29   51    2         0.1686271874E+06      0.7077904241E+06
          0                 2           9            29   51     2      -0.5687661557E+00      29   51    2        -0.1991840421E+05      0.7623735394E+05
          0                 3           6            74   64     1       0.2924947792E-01      51   42    1         0.1009178671E+04      0.1579166086E+04
          0                 4           5            55  100     3      -0.1661879710E-02      55  100    3        -0.4679565262E+02      0.6645184256E+02

    ------------------------------------------------
       NWT REQUIRED            4 OUTER ITERATIONS 
       AND A TOTAL OF         31 INNER ITERATIONS.
    ------------------------------------------------

 NO OUTPUT CONTROL FOR STRESS PERIOD   64   TIME STEP    4
 
 SOLVING FOR HEAD 
                                                   Max.-Head-Change                         Max.-Flux-Residual
  Residual-Control   Outer-Iter.   Inner-Iter.     Column Row Layer    Maximum-Head-Change  Column Row Layer    Maximum-Flux-Residual          L2-NORM 
          0                 1          10            29   51     2       0.3741551858E+01      29   51    2         0.1146083722E+06      0.6541509140E+06
          0                 2           9            82   49     1      -0.3134513909E+01      29   51    2        -0.1267553475E+05      0.6905089968E+05
          0                 3           6            82   49     1       0.2346996967E+00      54   41    1         0.1020823928E+04      0.1580587671E+04
          0                 4           4            82   49     1       0.3759663368E-02      55  100    3        -0.3908733072E+02      0.4128592582E+02

    ------------------------------------------------
       NWT REQUIRED            4 OUTER ITERATIONS 
       AND A TOTAL OF         29 INNER ITERATIONS.
    ------------------------------------------------

 NO OUTPUT CONTROL FOR STRESS PERIOD   64   TIME STEP    5
 
 SOLVING FOR HEAD 
                                                   Max.-Head-Change                         Max.-Flux-Residual
  Residual-Control   Outer-Iter.   Inner-Iter.     Column Row Layer    Maximum-Head-Change  Column Row Layer    Maximum-Flux-Residual          L2-NORM 
          0                 1          10            82   49     1      -0.3728029774E+01      61   85    2         0.8112073152E+05      0.6184058004E+06
          0                 2           9            61   25     2      -0.2367493281E+01      62   96    2         0.1882851048E+05      0.7061748749E+05
          0                 3           6            61   25     2       0.1796460564E+00      29   24    2        -0.1012213623E+04      0.1556507794E+04
          0                 4           4            61   25     2       0.2673299813E-02      55  100    3        -0.3178680066E+02      0.3390783250E+02

    ------------------------------------------------
       NWT REQUIRED            4 OUTER ITERATIONS 
       AND A TOTAL OF         29 INNER ITERATIONS.
    ------------------------------------------------

 NO OUTPUT CONTROL FOR STRESS PERIOD   64   TIME STEP    6
 
 SOLVING FOR HEAD 
                                                   Max.-Head-Change                         Max.-Flux-Residual
  Residual-Control   Outer-Iter.   Inner-Iter.     Column Row Layer    Maximum-Head-Change  Column Row Layer    Maximum-Flux-Residual          L2-NORM 
          0                 1          10            70   17     2       0.2530655857E+01      61   85    2         0.7839186419E+05      0.5924962056E+06
          0                 2           9            71   11     2      -0.4168504842E+01      62   86    2         0.1568136808E+05      0.6283619766E+05
          0                 3           7            71   11     2       0.4182192707E+00      70   19    2         0.1065182168E+05      0.1082632877E+05
          0                 4           6            30   46     1       0.3629634785E-01      70   19    2         0.9580622554E+03      0.9620169536E+03
          0                 5           5            70   19     2       0.1873992830E-02      70   19    2         0.8612497181E+02      0.8652742635E+02

    ------------------------------------------------
       NWT REQUIRED            5 OUTER ITERATIONS 
       AND A TOTAL OF         37 INNER ITERATIONS.
    ------------------------------------------------

 NO OUTPUT CONTROL FOR STRESS PERIOD   64   TIME STEP    7
 
 SOLVING FOR HEAD 
                                                   Max.-Head-Change                         Max.-Flux-Residual
  Residual-Control   Outer-Iter.   Inner-Iter.     Column Row Layer    Maximum-Head-Change  Column Row Layer    Maximum-Flux-Residual          L2-NORM 
          0                 1          11            30   47     2      -0.3950352340E+01      61   85    2         0.7502972142E+05      0.5742464572E+06
          0                 2           9            70   19     2       0.3863847452E+01      70   19    2         0.4304199614E+05      0.7231495785E+05
          0                 3           7            71   19     2       0.6193469059E+00      70   19    2        -0.7537045384E+04      0.8248155054E+04
          0                 4           5            71   19     2       0.5998301155E-01      71   19    2         0.2501578755E+03      0.2641259820E+03
          0                 5           3            71   19     2       0.5803812433E-02      71   19    2         0.2414611850E+02      0.2530802703E+02

    ------------------------------------------------
       NWT REQUIRED            5 OUTER ITERATIONS 
       AND A TOTAL OF         35 INNER ITERATIONS.
    ------------------------------------------------

 NO OUTPUT CONTROL FOR STRESS PERIOD   64   TIME STEP    8
 
 SOLVING FOR HEAD 
                                                   Max.-Head-Change                         Max.-Flux-Residual
  Residual-Control   Outer-Iter.   Inner-Iter.     Column Row Layer    Maximum-Head-Change  Column Row Layer    Maximum-Flux-Residual          L2-NORM 
          0                 1          10            70   19     1       0.2585400938E+01      70   19    1         0.7360050118E+05      0.5610748144E+06
          0                 2           9            72   15     2       0.1765674283E+01      71   19    2        -0.1752796119E+05      0.6468842905E+05
          0                 3           6            72   15     2      -0.1603853988E+00      72   15    2        -0.1563971792E+04      0.1703585262E+04
          0                 4           4            70   63     1       0.8635484414E-03      55  100    3        -0.1595209651E+02      0.1855538816E+02

    ------------------------------------------------
       NWT REQUIRED            4 OUTER ITERATIONS 
       AND A TOTAL OF         29 INNER ITERATIONS.
    ------------------------------------------------

 NO OUTPUT CONTROL FOR STRESS PERIOD   64   TIME STEP    9
 
 SOLVING FOR HEAD 
                                                   Max.-Head-Change                         Max.-Flux-Residual
  Residual-Control   Outer-Iter.   Inner-Iter.     Column Row Layer    Maximum-Head-Change  Column Row Layer    Maximum-Flux-Residual          L2-NORM 
          0                 1          10            72   15     2       0.4252971857E+01      70   19    1         0.6963857882E+05      0.5483466746E+06
          0                 2           9            70   62     1      -0.1404836869E+01      62   96    1        -0.1729938619E+05      0.5804836906E+05
          0                 3           7            70   62     1       0.1081277727E+00      62   96    1         0.1698146542E+04      0.1837792067E+04
          0                 4           4            33   69     2       0.1569847930E-02      55  100    3        -0.1268157767E+02      0.1641284264E+02

    ------------------------------------------------
       NWT REQUIRED            4 OUTER ITERATIONS 
       AND A TOTAL OF         30 INNER ITERATIONS.
    ------------------------------------------------

 NO OUTPUT CONTROL FOR STRESS PERIOD   64   TIME STEP   10
 
 SOLVING FOR HEAD 
                                                   Max.-Head-Change                         Max.-Flux-Residual
  Residual-Control   Outer-Iter.   Inner-Iter.     Column Row Layer    Maximum-Head-Change  Column Row Layer    Maximum-Flux-Residual          L2-NORM 
          0                 1          10            33   69     2      -0.2433391291E+01      70   19    1         0.6408408634E+05      0.5389164722E+06
          0                 2           9            73   14     1      -0.7900892122E+00      73   14    1        -0.2658353920E+05      0.6205898424E+05
          0                 3           7            78   74     1       0.5307609322E-01      14   13    2         0.1844859505E+04      0.1910711524E+04
          0                 4           5            14   13     2       0.1049657415E-02      14   13    2         0.1660169563E+03      0.1666136184E+03

    ------------------------------------------------
       NWT REQUIRED            4 OUTER ITERATIONS 
       AND A TOTAL OF         31 INNER ITERATIONS.
    ------------------------------------------------

 NO OUTPUT CONTROL FOR STRESS PERIOD   64   TIME STEP   11
 
 SOLVING FOR HEAD 
                                                   Max.-Head-Change                         Max.-Flux-Residual
  Residual-Control   Outer-Iter.   Inner-Iter.     Column Row Layer    Maximum-Head-Change  Column Row Layer    Maximum-Flux-Residual          L2-NORM 
          0                 1          10            72   15     1       0.2186044968E+01      61   85    2         0.6006236233E+05      0.5288992809E+06
          0                 2           9            87   63     1      -0.1123909845E+01      32   24    2         0.1542877132E+05      0.5976030673E+05
          0                 3           6            87   63     1       0.8732975709E-01      32   24    2        -0.1490209856E+04      0.1784207778E+04
          0                 4           4            87   63     1       0.1156462728E-02      44   32    1        -0.8807689071E+01      0.1249676552E+02

    ------------------------------------------------
       NWT REQUIRED            4 OUTER ITERATIONS 
       AND A TOTAL OF         29 INNER ITERATIONS.
    ------------------------------------------------

 OUTPUT CONTROL FOR STRESS PERIOD   64   TIME STEP   12
    SAVE BUDGET
 UBDSV1 SAVING "         STORAGE" ON UNIT  39 AT TIME STEP 12, STRESS PERIOD  64
 UBDSV2 SAVING "   CONSTANT HEAD" ON UNIT  39 AT TIME STEP 12, STRESS PERIOD  64
 UBDSV1 SAVING "FLOW RIGHT FACE " ON UNIT  39 AT TIME STEP 12, STRESS PERIOD  64
 UBDSV1 SAVING "FLOW FRONT FACE " ON UNIT  39 AT TIME STEP 12, STRESS PERIOD  64
 UBDSV1 SAVING "FLOW LOWER FACE " ON UNIT  39 AT TIME STEP 12, STRESS PERIOD  64
 UBDSV4 SAVING "           WELLS" ON UNIT  39 AT TIME STEP 12, STRESS PERIOD  64
 UBDSV3 SAVING "              ET" ON UNIT  39 AT TIME STEP 12, STRESS PERIOD  64
 UBDSV3 SAVING "        RECHARGE" ON UNIT  39 AT TIME STEP 12, STRESS PERIOD  64
1
  VOLUMETRIC BUDGET FOR ENTIRE MODEL AT END OF TIME STEP   12, STRESS PERIOD  64
  ------------------------------------------------------------------------------

     CUMULATIVE VOLUMES      L**3       RATES FOR THIS TIME STEP      L**3/T
     ------------------                 ------------------------

           IN:                                      IN:
           ---                                      ---
             STORAGE =416713572352.0000               STORAGE =    17212268.0000
       CONSTANT HEAD = 43425202176.0000         CONSTANT HEAD =     2208579.5000
               WELLS = 28650096640.0000                 WELLS =     1225642.0000
                  ET =           0.0000                    ET =           0.0000
            RECHARGE =486591660032.0000              RECHARGE =    27903472.0000

            TOTAL IN =975380545536.0000              TOTAL IN =    48549960.0000

          OUT:                                     OUT:
          ----                                     ----
             STORAGE = 99812999168.0000               STORAGE =     8838642.0000
       CONSTANT HEAD = 70358138880.0000         CONSTANT HEAD =     1689494.7500
               WELLS =782090895360.0000                 WELLS =    37814588.0000
                  ET = 23117973504.0000                    ET =      207239.1719
            RECHARGE =           0.0000              RECHARGE =           0.0000

           TOTAL OUT =975380021248.0000             TOTAL OUT =    48549968.0000

            IN - OUT =      524288.0000              IN - OUT =          -8.0000

 PERCENT DISCREPANCY =           0.00     PERCENT DISCREPANCY =          -0.00






         TIME SUMMARY AT END OF TIME STEP   12 IN STRESS PERIOD   64
                    SECONDS     MINUTES      HOURS       DAYS        YEARS
                    -----------------------------------------------------------
   TIME STEP LENGTH 2.62800E+06  43800.      730.00      30.417     8.32763E-02
 STRESS PERIOD TIME 3.15360E+07 5.25600E+05  8760.0      365.00     0.99932    
         TOTAL TIME 2.01968E+09 3.36613E+07 5.61022E+05  23376.      64.000    
1
1
                            STRESS PERIOD NO.   65, LENGTH =   366.0000    
                            -----------------------------------------------

                              NUMBER OF TIME STEPS =    12

                               MULTIPLIER FOR DELT =     1.000

                            INITIAL TIME STEP SIZE =   30.50000    

   1567 WELLS

 REUSING SURF FROM LAST STRESS PERIOD

 REUSING EVTR FROM LAST STRESS PERIOD

 REUSING EXDP FROM LAST STRESS PERIOD



                           RECHARGE
 READING ON UNIT   16 WITH FORMAT: (15F5.0)            


     63 TIME-VARIANT SPECIFIED-HEAD CELLS
 
 SOLVING FOR HEAD 
                                                   Max.-Head-Change                         Max.-Flux-Residual
  Residual-Control   Outer-Iter.   Inner-Iter.     Column Row Layer    Maximum-Head-Change  Column Row Layer    Maximum-Flux-Residual          L2-NORM 
          0                 1          12            65    2     2      -0.8505075707E+02      30   53    1         0.5609001875E+06      0.1509590314E+07
          0                 2          10            73   14     1      -0.5080061751E+01      30   53    1        -0.5553497770E+05      0.1642413622E+06
          0                 3           7            73   14     1       0.4427155581E+00      73   14    2        -0.4786011795E+04      0.8376541370E+04
          0                 4           5            65    2     2       0.9402793856E-02      58   96    3         0.8872754490E+02      0.1009460747E+03

    ------------------------------------------------
       NWT REQUIRED            4 OUTER ITERATIONS 
       AND A TOTAL OF         34 INNER ITERATIONS.
    ------------------------------------------------

 NO OUTPUT CONTROL FOR STRESS PERIOD   65   TIME STEP    1
 
 SOLVING FOR HEAD 
                                                   Max.-Head-Change                         Max.-Flux-Residual
  Residual-Control   Outer-Iter.   Inner-Iter.     Column Row Layer    Maximum-Head-Change  Column Row Layer    Maximum-Flux-Residual          L2-NORM 
          0                 1          11            30   53     2       0.7427160562E+01      30   53    2         0.2492116675E+06      0.8709268455E+06
          0                 2          10            30   53     2      -0.7271192285E+00      30   53    2        -0.2792169805E+05      0.9277884426E+05
          0                 3           7            25   26     2       0.4828540844E-02      25   26    2         0.7316038481E+03      0.7866602984E+03

    ------------------------------------------------
       NWT REQUIRED            3 OUTER ITERATIONS 
       AND A TOTAL OF         28 INNER ITERATIONS.
    ------------------------------------------------

 NO OUTPUT CONTROL FOR STRESS PERIOD   65   TIME STEP    2
 
 SOLVING FOR HEAD 
                                                   Max.-Head-Change                         Max.-Flux-Residual
  Residual-Control   Outer-Iter.   Inner-Iter.     Column Row Layer    Maximum-Head-Change  Column Row Layer    Maximum-Flux-Residual          L2-NORM 
          0                 1          11            28   49     2      -0.5560324542E+01      30   53    2         0.1532381027E+06      0.7043508045E+06
          0                 2          10            88   67     1      -0.5023625012E+01      54   45    1        -0.1622289854E+05      0.7417592556E+05
          0                 3           6            88   67     1       0.3126285528E+00      23   49    2         0.8156432111E+03      0.1204880521E+04
          0                 4           4            88   67     1       0.8974877496E-02      88   67    1         0.1229085147E+02      0.1404332194E+02

    ------------------------------------------------
       NWT REQUIRED            4 OUTER ITERATIONS 
       AND A TOTAL OF         31 INNER ITERATIONS.
    ------------------------------------------------

 NO OUTPUT CONTROL FOR STRESS PERIOD   65   TIME STEP    3
 
 SOLVING FOR HEAD 
                                                   Max.-Head-Change                         Max.-Flux-Residual
  Residual-Control   Outer-Iter.   Inner-Iter.     Column Row Layer    Maximum-Head-Change  Column Row Layer    Maximum-Flux-Residual          L2-NORM 
          0                 1          11            88   67     1      -0.4538856346E+01      30   53    2         0.9824069743E+05      0.6207423337E+06
          0                 2          10            65    6     2      -0.2305729157E+02      31   24    1        -0.2823147727E+05      0.7605660307E+05
          0                 3           6            65    6     2       0.1377711209E+01      61   84    2        -0.2499676981E+04      0.3061353585E+04
          0                 4           4            65    6     2       0.5264343863E-01      65    6    2         0.3477483151E+02      0.3842828968E+02
          0                 5           2            65    6     2       0.2005910793E-02      65    6    3         0.2861771755E+01      0.3396663892E+01

    ------------------------------------------------
       NWT REQUIRED            5 OUTER ITERATIONS 
       AND A TOTAL OF         33 INNER ITERATIONS.
    ------------------------------------------------

 NO OUTPUT CONTROL FOR STRESS PERIOD   65   TIME STEP    4
 
 SOLVING FOR HEAD 
                                                   Max.-Head-Change                         Max.-Flux-Residual
  Residual-Control   Outer-Iter.   Inner-Iter.     Column Row Layer    Maximum-Head-Change  Column Row Layer    Maximum-Flux-Residual          L2-NORM 
          0                 1          11            65    6     2      -0.7416908569E+01      30   52    2         0.7100428091E+05      0.5726909447E+06
          0                 2           9            69   21     1      -0.2657667996E+01      69   21    1        -0.1329314032E+05      0.6174951305E+05
          0                 3           6            69   21     1       0.2268759810E+00      69   21    1         0.1249338206E+04      0.1966334654E+04
          0                 4           4            69   21     1       0.1253945238E-02      17   10    2         0.2774070672E+02      0.3275755237E+02

    ------------------------------------------------
       NWT REQUIRED            4 OUTER ITERATIONS 
       AND A TOTAL OF         30 INNER ITERATIONS.
    ------------------------------------------------

 NO OUTPUT CONTROL FOR STRESS PERIOD   65   TIME STEP    5
 
 SOLVING FOR HEAD 
                                                   Max.-Head-Change                         Max.-Flux-Residual
  Residual-Control   Outer-Iter.   Inner-Iter.     Column Row Layer    Maximum-Head-Change  Column Row Layer    Maximum-Flux-Residual          L2-NORM 
          0                 1          11            69   21     1      -0.3862644419E+01      62   96    2        -0.5705589374E+05      0.5411017281E+06
          0                 2           9            65    3     2      -0.2225412262E+02      29   23    1        -0.1429173085E+05      0.6095499167E+05
          0                 3           5            65    3     2       0.1152672024E+01      65    3    2         0.5739293392E+03      0.7471728933E+03
          0                 4           3            65    3     2       0.5870481873E-01      65    3    2         0.2910205232E+02      0.3370505218E+02
          0                 5           2            65    3     2       0.2981360882E-02      65    3    2         0.1478759544E+01      0.1926704646E+01

    ------------------------------------------------
       NWT REQUIRED            5 OUTER ITERATIONS 
       AND A TOTAL OF         30 INNER ITERATIONS.
    ------------------------------------------------

 NO OUTPUT CONTROL FOR STRESS PERIOD   65   TIME STEP    6
 
 SOLVING FOR HEAD 
                                                   Max.-Head-Change                         Max.-Flux-Residual
  Residual-Control   Outer-Iter.   Inner-Iter.     Column Row Layer    Maximum-Head-Change  Column Row Layer    Maximum-Flux-Residual          L2-NORM 
          0                 1          11            65    3     2      -0.3765561846E+01      62   96    2        -0.5390605922E+05      0.5186073154E+06
          0                 2           9            65    5     2      -0.2047994780E+02      65    5    2        -0.9824574773E+04      0.5462261310E+05
          0                 3           6            65    5     2       0.1202139257E+01      30   24    2        -0.7765207961E+03      0.1725249681E+04
          0                 4           4            65    5     2       0.5246446515E-01      65    5    2         0.3044004474E+02      0.4147719348E+02
          0                 5           3            65    5     2       0.2282849209E-02      65    5    2         0.1325723498E+01      0.1972383354E+01

    ------------------------------------------------
       NWT REQUIRED            5 OUTER ITERATIONS 
       AND A TOTAL OF         33 INNER ITERATIONS.
    ------------------------------------------------

 NO OUTPUT CONTROL FOR STRESS PERIOD   65   TIME STEP    7
 
 SOLVING FOR HEAD 
                                                   Max.-Head-Change                         Max.-Flux-Residual
  Residual-Control   Outer-Iter.   Inner-Iter.     Column Row Layer    Maximum-Head-Change  Column Row Layer    Maximum-Flux-Residual          L2-NORM 
          0                 1          11            65    5     2      -0.8411749464E+01      62   96    2        -0.5123893887E+05      0.5015528278E+06
          0                 2           9            65    5     2       0.3827202609E+00      34   23    2         0.1234775025E+05      0.5342940163E+05
          0                 3           6            78   83     1       0.2518500092E-01      34   23    2        -0.1175551928E+04      0.1329623020E+04
          0                 4           3            65    5     2       0.7221218905E-03      55  100    3         0.1332273267E+01      0.1682291908E+01

    ------------------------------------------------
       NWT REQUIRED            4 OUTER ITERATIONS 
       AND A TOTAL OF         29 INNER ITERATIONS.
    ------------------------------------------------

 NO OUTPUT CONTROL FOR STRESS PERIOD   65   TIME STEP    8
 
 SOLVING FOR HEAD 
                                                   Max.-Head-Change                         Max.-Flux-Residual
  Residual-Control   Outer-Iter.   Inner-Iter.     Column Row Layer    Maximum-Head-Change  Column Row Layer    Maximum-Flux-Residual          L2-NORM 
          0                 1          11            30   45     2      -0.4823130842E+01      62   95    2        -0.4936776287E+05      0.4884065996E+06
          0                 2           9            30   45     2       0.2124685285E+01      72   15    2         0.1731111056E+05      0.5499897212E+05
          0                 3           8            30   45     1       0.7309541209E+00      30   45    2         0.2091893144E+04      0.3209649200E+04
          0                 4           5            30   45     1       0.8830796800E-02      29   45    2        -0.1877622083E+03      0.1890689262E+03

    ------------------------------------------------
       NWT REQUIRED            4 OUTER ITERATIONS 
       AND A TOTAL OF         33 INNER ITERATIONS.
    ------------------------------------------------

 NO OUTPUT CONTROL FOR STRESS PERIOD   65   TIME STEP    9
 
 SOLVING FOR HEAD 
                                                   Max.-Head-Change                         Max.-Flux-Residual
  Residual-Control   Outer-Iter.   Inner-Iter.     Column Row Layer    Maximum-Head-Change  Column Row Layer    Maximum-Flux-Residual          L2-NORM 
          0                 1          11            63   95     1      -0.1447336144E+01      62   95    2        -0.4836391318E+05      0.4776190804E+06
          0                 2           9            71   96     1      -0.4824893734E+00      62   87    1        -0.1719352447E+05      0.5272557830E+05
          0                 3           6            71   96     1       0.3486723347E-01      68   52    2        -0.2939956957E+03      0.4290429933E+03
          0                 4           3            71   96     1       0.6511055828E-03      55  100    3         0.1197026290E+01      0.2408547703E+01

    ------------------------------------------------
       NWT REQUIRED            4 OUTER ITERATIONS 
       AND A TOTAL OF         29 INNER ITERATIONS.
    ------------------------------------------------

 NO OUTPUT CONTROL FOR STRESS PERIOD   65   TIME STEP   10
 
 SOLVING FOR HEAD 
                                                   Max.-Head-Change                         Max.-Flux-Residual
  Residual-Control   Outer-Iter.   Inner-Iter.     Column Row Layer    Maximum-Head-Change  Column Row Layer    Maximum-Flux-Residual          L2-NORM 
          0                 1          11            63   95     1      -0.1449506897E+01      62   95    2        -0.4744022923E+05      0.4683921699E+06
          0                 2           9            40   71     2      -0.1578687040E+01      28   21    1        -0.9209872866E+04      0.4940347117E+05
          0                 3           6            78   47     1      -0.1590154661E+00      78   47    1        -0.6607141326E+04      0.6617359536E+04
          0                 4           3            78   47     1      -0.1431696832E-01      78   47    1        -0.5947816388E+03      0.5947997116E+03
          0                 5           2            78   47     1      -0.1287269819E-02      78   47    1        -0.5347201767E+02      0.5347276105E+02

    ------------------------------------------------
       NWT REQUIRED            5 OUTER ITERATIONS 
       AND A TOTAL OF         31 INNER ITERATIONS.
    ------------------------------------------------

 NO OUTPUT CONTROL FOR STRESS PERIOD   65   TIME STEP   11

 INTERPOLATION FOR HEAD OBS# 3716, ID 1471-65-336  CHANGED BECAUSE AT LEAST ONE
 NEIGHBORING CELL REQUIRED FOR INTERPOLATION IS DRY OR INACTIVE (OBS2BAS7SE)

 INTERPOLATION FOR HEAD OBS# 5435, ID 846-65-362   CHANGED BECAUSE AT LEAST ONE
 NEIGHBORING CELL REQUIRED FOR INTERPOLATION IS DRY OR INACTIVE (OBS2BAS7SE)
 
 SOLVING FOR HEAD 
                                                   Max.-Head-Change                         Max.-Flux-Residual
  Residual-Control   Outer-Iter.   Inner-Iter.     Column Row Layer    Maximum-Head-Change  Column Row Layer    Maximum-Flux-Residual          L2-NORM 
          0                 1          11            40   71     2      -0.2129781611E+01      62   95    2        -0.4659375549E+05      0.4601428365E+06
          0                 2           9            78   47     1      -0.1945065877E+01      63   96    2         0.1347415801E+05      0.4990705998E+05
          0                 3           6            78   47     1       0.1570811045E+00      62   87    2        -0.7211844877E+03      0.1119282654E+04
          0                 4           2            78   47     1       0.1595853720E-02      78   47    1         0.5410189610E+01      0.5704726335E+01

    ------------------------------------------------
       NWT REQUIRED            4 OUTER ITERATIONS 
       AND A TOTAL OF         28 INNER ITERATIONS.
    ------------------------------------------------

 OUTPUT CONTROL FOR STRESS PERIOD   65   TIME STEP   12
    SAVE BUDGET
 UBDSV1 SAVING "         STORAGE" ON UNIT  39 AT TIME STEP 12, STRESS PERIOD  65
 UBDSV2 SAVING "   CONSTANT HEAD" ON UNIT  39 AT TIME STEP 12, STRESS PERIOD  65
 UBDSV1 SAVING "FLOW RIGHT FACE " ON UNIT  39 AT TIME STEP 12, STRESS PERIOD  65
 UBDSV1 SAVING "FLOW FRONT FACE " ON UNIT  39 AT TIME STEP 12, STRESS PERIOD  65
 UBDSV1 SAVING "FLOW LOWER FACE " ON UNIT  39 AT TIME STEP 12, STRESS PERIOD  65
 UBDSV4 SAVING "           WELLS" ON UNIT  39 AT TIME STEP 12, STRESS PERIOD  65
 UBDSV3 SAVING "              ET" ON UNIT  39 AT TIME STEP 12, STRESS PERIOD  65
 UBDSV3 SAVING "        RECHARGE" ON UNIT  39 AT TIME STEP 12, STRESS PERIOD  65

 INTERPOLATION FOR HEAD OBS#  199, ID 3228-66-19   CHANGED BECAUSE AT LEAST ONE
 NEIGHBORING CELL REQUIRED FOR INTERPOLATION IS DRY OR INACTIVE (OBS2BAS7SE)

 INTERPOLATION FOR HEAD OBS#  640, ID 3014-66-25   CHANGED BECAUSE AT LEAST ONE
 NEIGHBORING CELL REQUIRED FOR INTERPOLATION IS DRY OR INACTIVE (OBS2BAS7SE)

 INTERPOLATION FOR HEAD OBS# 1744, ID 2618-66-28   CHANGED BECAUSE AT LEAST ONE
 NEIGHBORING CELL REQUIRED FOR INTERPOLATION IS DRY OR INACTIVE (OBS2BAS7SE)

 INTERPOLATION FOR HEAD OBS# 1835, ID 1908-66-18   CHANGED BECAUSE AT LEAST ONE
 NEIGHBORING CELL REQUIRED FOR INTERPOLATION IS DRY OR INACTIVE (OBS2BAS7SE)

 INTERPOLATION FOR HEAD OBS# 1870, ID 2606-66-20   CHANGED BECAUSE AT LEAST ONE
 NEIGHBORING CELL REQUIRED FOR INTERPOLATION IS DRY OR INACTIVE (OBS2BAS7SE)

 INTERPOLATION FOR HEAD OBS# 2527, ID 2243-66-19   CHANGED BECAUSE AT LEAST ONE
 NEIGHBORING CELL REQUIRED FOR INTERPOLATION IS DRY OR INACTIVE (OBS2BAS7SE)

 INTERPOLATION FOR HEAD OBS# 3202, ID 2443-66-24   CHANGED BECAUSE AT LEAST ONE
 NEIGHBORING CELL REQUIRED FOR INTERPOLATION IS DRY OR INACTIVE (OBS2BAS7SE)

 INTERPOLATION FOR HEAD OBS# 3777, ID 1405-66-13   CHANGED BECAUSE AT LEAST ONE
 NEIGHBORING CELL REQUIRED FOR INTERPOLATION IS DRY OR INACTIVE (OBS2BAS7SE)

 INTERPOLATION FOR HEAD OBS# 5406, ID 1705-66-25   CHANGED BECAUSE AT LEAST ONE
 NEIGHBORING CELL REQUIRED FOR INTERPOLATION IS DRY OR INACTIVE (OBS2BAS7SE)

 INTERPOLATION FOR HEAD OBS# 6269, ID 987-66-20    CHANGED BECAUSE AT LEAST ONE
 NEIGHBORING CELL REQUIRED FOR INTERPOLATION IS DRY OR INACTIVE (OBS2BAS7SE)
1
  VOLUMETRIC BUDGET FOR ENTIRE MODEL AT END OF TIME STEP   12, STRESS PERIOD  65
  ------------------------------------------------------------------------------

     CUMULATIVE VOLUMES      L**3       RATES FOR THIS TIME STEP      L**3/T
     ------------------                 ------------------------

           IN:                                      IN:
           ---                                      ---
             STORAGE =423012106240.0000               STORAGE =    15969594.0000
       CONSTANT HEAD = 44253872128.0000         CONSTANT HEAD =     2289527.5000
               WELLS = 29098682368.0000                 WELLS =     1225642.0000
                  ET =           0.0000                    ET =           0.0000
            RECHARGE =496796401664.0000              RECHARGE =    27881394.0000

            TOTAL IN =993160986624.0000              TOTAL IN =    47366160.0000

          OUT:                                     OUT:
          ----                                     ----
             STORAGE =103105019904.0000               STORAGE =     7757994.0000
       CONSTANT HEAD = 70972039168.0000         CONSTANT HEAD =     1661232.8750
               WELLS =795862106112.0000                 WELLS =    37627316.0000
                  ET = 23220989952.0000                    ET =      319614.0000
            RECHARGE =           0.0000              RECHARGE =           0.0000

           TOTAL OUT =993160134656.0000             TOTAL OUT =    47366152.0000

            IN - OUT =      851968.0000              IN - OUT =           8.0000

 PERCENT DISCREPANCY =           0.00     PERCENT DISCREPANCY =           0.00






         TIME SUMMARY AT END OF TIME STEP   12 IN STRESS PERIOD   65
                    SECONDS     MINUTES      HOURS       DAYS        YEARS
                    -----------------------------------------------------------
   TIME STEP LENGTH 2.63520E+06  43920.      732.00      30.500     8.35044E-02
 STRESS PERIOD TIME 3.16224E+07 5.27040E+05  8784.0      366.00      1.0021    
         TOTAL TIME 2.05130E+09 3.41884E+07 5.69806E+05  23742.      65.002    
1
1
                            STRESS PERIOD NO.   66, LENGTH =   365.0000    
                            -----------------------------------------------

                              NUMBER OF TIME STEPS =    12

                               MULTIPLIER FOR DELT =     1.000

                            INITIAL TIME STEP SIZE =   30.41667    

   1579 WELLS

 REUSING SURF FROM LAST STRESS PERIOD

 REUSING EVTR FROM LAST STRESS PERIOD

 REUSING EXDP FROM LAST STRESS PERIOD



                           RECHARGE
 READING ON UNIT   16 WITH FORMAT: (15F5.0)            


     63 TIME-VARIANT SPECIFIED-HEAD CELLS
 
 SOLVING FOR HEAD 
                                                   Max.-Head-Change                         Max.-Flux-Residual
  Residual-Control   Outer-Iter.   Inner-Iter.     Column Row Layer    Maximum-Head-Change  Column Row Layer    Maximum-Flux-Residual          L2-NORM 
          0                 1          11            30   53     1       0.2796126750E+02      30   53    1         0.5520690000E+06      0.1459673944E+07
          0                 2          10            69   47     1      -0.5180113141E+01      69   47    1        -0.2428681929E+06      0.2877161573E+06
          0                 3           7            69   46     1       0.1180982796E+00      17   16    2         0.2994921554E+04      0.4707162427E+04
          0                 4           5            36   68     2       0.2605252420E-02      17   16    2         0.2694865476E+03      0.2848985465E+03

    ------------------------------------------------
       NWT REQUIRED            4 OUTER ITERATIONS 
       AND A TOTAL OF         33 INNER ITERATIONS.
    ------------------------------------------------

 NO OUTPUT CONTROL FOR STRESS PERIOD   66   TIME STEP    1

 INTERPOLATION FOR HEAD OBS# 1336, ID 2852-66-35   CHANGED BECAUSE AT LEAST ONE
 NEIGHBORING CELL REQUIRED FOR INTERPOLATION IS DRY OR INACTIVE (OBS2BAS7SE)

 INTERPOLATION FOR HEAD OBS# 1405, ID 2840-66-32   CHANGED BECAUSE AT LEAST ONE
 NEIGHBORING CELL REQUIRED FOR INTERPOLATION IS DRY OR INACTIVE (OBS2BAS7SE)

 INTERPOLATION FOR HEAD OBS# 1406, ID 2827-66-32   CHANGED BECAUSE AT LEAST ONE
 NEIGHBORING CELL REQUIRED FOR INTERPOLATION IS DRY OR INACTIVE (OBS2BAS7SE)

 INTERPOLATION FOR HEAD OBS# 1659, ID 2303-66-47   CHANGED BECAUSE AT LEAST ONE
 NEIGHBORING CELL REQUIRED FOR INTERPOLATION IS DRY OR INACTIVE (OBS2BAS7SE)

 INTERPOLATION FOR HEAD OBS# 3614, ID 1370-66-56   CHANGED BECAUSE AT LEAST ONE
 NEIGHBORING CELL REQUIRED FOR INTERPOLATION IS DRY OR INACTIVE (OBS2BAS7SE)
 
 SOLVING FOR HEAD 
                                                   Max.-Head-Change                         Max.-Flux-Residual
  Residual-Control   Outer-Iter.   Inner-Iter.     Column Row Layer    Maximum-Head-Change  Column Row Layer    Maximum-Flux-Residual          L2-NORM 
          0                 1          11            30   53     2       0.9700675336E+01      30   53    2         0.3415579768E+06      0.9447744432E+06
          0                 2           9            30   53     2      -0.9423751496E+00      30   53    2        -0.3864942700E+05      0.1045082784E+06
          0                 3           7            29   51     3      -0.1898757590E-01      27   20    2        -0.2610946636E+04      0.3943556699E+04
          0                 4           4            42   30     2       0.8507634101E-03      42   30    2         0.1307307764E+03      0.1578209152E+03

    ------------------------------------------------
       NWT REQUIRED            4 OUTER ITERATIONS 
       AND A TOTAL OF         31 INNER ITERATIONS.
    ------------------------------------------------

 NO OUTPUT CONTROL FOR STRESS PERIOD   66   TIME STEP    2

 INTERPOLATION FOR HEAD OBS# 7536, ID 269-66-61    CHANGED BECAUSE AT LEAST ONE
 NEIGHBORING CELL REQUIRED FOR INTERPOLATION IS DRY OR INACTIVE (OBS2BAS7SE)
 
 SOLVING FOR HEAD 
                                                   Max.-Head-Change                         Max.-Flux-Residual
  Residual-Control   Outer-Iter.   Inner-Iter.     Column Row Layer    Maximum-Head-Change  Column Row Layer    Maximum-Flux-Residual          L2-NORM 
          0                 1          11            30   53     2       0.6130785554E+01      30   53    2         0.2009384748E+06      0.7709897580E+06
          0                 2          10            30   53     1      -0.2716226947E+01      30   53    1        -0.1298719266E+06      0.1563366819E+06
          0                 3           7            29   22     2       0.1763179051E-01      29   22    2         0.3226287134E+04      0.4226291946E+04
          0                 4           6            29   22     2       0.1586962283E-02      29   22    2         0.2903375853E+03      0.2986416880E+03

    ------------------------------------------------
       NWT REQUIRED            4 OUTER ITERATIONS 
       AND A TOTAL OF         34 INNER ITERATIONS.
    ------------------------------------------------

 NO OUTPUT CONTROL FOR STRESS PERIOD   66   TIME STEP    3
 
 SOLVING FOR HEAD 
                                                   Max.-Head-Change                         Max.-Flux-Residual
  Residual-Control   Outer-Iter.   Inner-Iter.     Column Row Layer    Maximum-Head-Change  Column Row Layer    Maximum-Flux-Residual          L2-NORM 
          0                 1          11            29   53     1       0.4382076955E+01      30   52    2         0.1223996718E+06      0.6794284598E+06
          0                 2          10            28   49     2       0.6328233067E+01      28   49    2         0.1366268089E+06      0.1580613049E+06
          0                 3           9            28   49     2      -0.5480771606E+01      28   49    2        -0.1305954906E+06      0.1306449214E+06
          0                 4           9            28   49     2       0.1684771282E+01      28   49    2         0.4389412113E+05      0.4391205858E+05
          0                 5           9            28   49     2      -0.1692719234E+01      28   49    2        -0.4842269920E+05      0.4842336986E+05
          0                 6           9            28   49     2       0.1428209910E+01      28   49    2         0.4469779219E+05      0.4469897229E+05
          0                 7           9            28   49     2      -0.1246960686E+01      28   49    2        -0.4271008863E+05      0.4271066913E+05
          0                 8           8            28   49     2       0.7352771032E+00      28   49    2         0.2747872667E+05      0.2747941109E+05
          0                 9           8            28   49     2      -0.6347130902E+00      28   49    2        -0.2587053288E+05      0.2587065520E+05
          0                10           8            28   49     2       0.4175303334E+00      28   49    2         0.1851478627E+05      0.1851502999E+05
                                                   Max.-Head-Change                         Max.-Flux-Residual
  Residual-Control   Outer-Iter.   Inner-Iter.     Column Row Layer    Maximum-Head-Change  Column Row Layer    Maximum-Flux-Residual          L2-NORM 
          0                11           8            28   49     2      -0.2765745080E+00      28   49    2        -0.1332647971E+05      0.1332653345E+05
          0                12           8            28   49     2       0.1290513573E+00      28   49    2         0.6741241445E+04      0.6741328094E+04
          0                13           7            28   49     2      -0.5577381658E-01      28   49    2        -0.3152695343E+04      0.3152700271E+04
          0                14           7            28   49     2       0.1661879155E-01      28   49    2         0.1014357154E+04      0.1014381645E+04
          0                15           6            28   49     2      -0.3726707953E-02      28   49    2        -0.2450026733E+03      0.2450067771E+03

    ------------------------------------------------
       NWT REQUIRED           15 OUTER ITERATIONS 
       AND A TOTAL OF        126 INNER ITERATIONS.
    ------------------------------------------------

 NO OUTPUT CONTROL FOR STRESS PERIOD   66   TIME STEP    4
 
 SOLVING FOR HEAD 
                                                   Max.-Head-Change                         Max.-Flux-Residual
  Residual-Control   Outer-Iter.   Inner-Iter.     Column Row Layer    Maximum-Head-Change  Column Row Layer    Maximum-Flux-Residual          L2-NORM 
          0                 1          11            86   64     1      -0.4397433135E+01      30   52    2         0.8969078092E+05      0.6285416212E+06
          0                 2           9            28   49     2       0.5711537168E+01      28   49    2         0.1234573181E+06      0.1403729730E+06
          0                 3           9            28   49     2      -0.6023624680E+01      28   49    2        -0.1433577709E+06      0.1433723949E+06
          0                 4           9            28   49     2       0.6136985523E+01      28   49    2         0.1597124374E+06      0.1597211260E+06
          0                 5           9            28   49     2      -0.5090214237E+01      28   49    2        -0.1457920847E+06      0.1457986654E+06
          0                 6           9            28   49     2       0.1283722644E+01      28   49    2         0.4007366085E+05      0.4008963606E+05
          0                 7           9            28   49     2      -0.1778257576E+01      28   49    2        -0.6088931544E+05      0.6088934526E+05
          0                 8           9            28   49     2       0.2553128774E+01      28   49    2         0.9533604701E+05      0.9533703877E+05
          0                 9           9            28   49     2      -0.1969135389E+01      28   49    2        -0.8027166533E+05      0.8027295517E+05
          0                10           8            28   49     2       0.6944669695E+00      28   49    2         0.3076459657E+05      0.3076596742E+05
                                                   Max.-Head-Change                         Max.-Flux-Residual
  Residual-Control   Outer-Iter.   Inner-Iter.     Column Row Layer    Maximum-Head-Change  Column Row Layer    Maximum-Flux-Residual          L2-NORM 
          0                11           8            28   49     2      -0.6581796161E+00      28   49    2        -0.3170891425E+05      0.3170892792E+05
          0                12           8            28   49     2       0.5180171304E+00      28   49    2         0.2704070025E+05      0.2704105668E+05
          0                13           8            28   49     2      -0.3691217584E+00      28   49    2        -0.2086053148E+05      0.2086056978E+05
          0                14           8            28   49     2       0.1996291372E+00      28   49    2         0.1217654052E+05      0.1217667856E+05
          0                15           8            28   49     2      -0.9788498875E-01      28   49    2        -0.6434606421E+04      0.6434610329E+04
          0                16           7            28   49     2       0.3523007072E-01      28   49    2         0.2488101492E+04      0.2488152754E+04
          0                17           6            28   49     2      -0.1016057275E-01      28   49    2        -0.7699318635E+03      0.7699411386E+03
          0                18           6            28   49     2       0.2034924704E-02      28   49    2         0.1645932189E+03      0.1646558196E+03

    ------------------------------------------------
       NWT REQUIRED           18 OUTER ITERATIONS 
       AND A TOTAL OF        150 INNER ITERATIONS.
    ------------------------------------------------

 NO OUTPUT CONTROL FOR STRESS PERIOD   66   TIME STEP    5
 
 SOLVING FOR HEAD 
                                                   Max.-Head-Change                         Max.-Flux-Residual
  Residual-Control   Outer-Iter.   Inner-Iter.     Column Row Layer    Maximum-Head-Change  Column Row Layer    Maximum-Flux-Residual          L2-NORM 
          0                 1          11            29   53     1       0.3209734244E+01      29   53    2         0.7545687034E+05      0.5959802028E+06
          0                 2          10            86   66     1      -0.3106583090E+01      28   19    1        -0.2166669576E+05      0.6701064929E+05
          0                 3           9            28   49     2      -0.1595529382E+01      28   49    2        -0.3793705004E+05      0.3797710653E+05
          0                 4           9            28   49     2       0.4769515718E+01      28   49    2         0.1243061550E+06      0.1243069260E+06
          0                 5           9            28   49     2      -0.4380582116E+01      28   49    2        -0.1254513729E+06      0.1254569492E+06
          0                 6           9            28   49     2       0.2528633592E+01      28   49    2         0.7905404691E+05      0.7906036363E+05
          0                 7           9            28   49     2      -0.2493259321E+01      28   49    2        -0.8544486451E+05      0.8544579240E+05
          0                 8           9            28   49     2       0.2009803306E+01      28   49    2         0.7507806911E+05      0.7507993026E+05
          0                 9           9            28   49     2      -0.1838861366E+01      28   49    2        -0.7499879429E+05      0.7499939761E+05
          0                10           9            28   49     2       0.1261394469E+01      28   49    2         0.5591869934E+05      0.5591969856E+05
                                                   Max.-Head-Change                         Max.-Flux-Residual
  Residual-Control   Outer-Iter.   Inner-Iter.     Column Row Layer    Maximum-Head-Change  Column Row Layer    Maximum-Flux-Residual          L2-NORM 
          0                11           9            28   49     2      -0.1130810145E+01      28   49    2        -0.5451739480E+05      0.5451758558E+05
          0                12           9            28   49     2       0.7983933666E+00      28   49    2         0.4169880120E+05      0.4169926226E+05
          0                13           8            28   49     2      -0.5780853137E+00      28   49    2        -0.3269339814E+05      0.3269348327E+05
          0                14           8            28   49     2       0.3072111157E+00      28   49    2         0.1874897168E+05      0.1874917317E+05
          0                15           8            28   49     2      -0.1585282985E+00      28   49    2        -0.1042843768E+05      0.1042844645E+05
          0                16           7            28   49     2       0.5896794738E-01      28   49    2         0.4166857007E+04      0.4166933057E+04
          0                17           7            28   49     2      -0.1824810662E-01      28   49    2        -0.1383857390E+04      0.1383866473E+04
          0                18           6            28   49     2       0.3946659342E-02      28   49    2         0.3193261775E+03      0.3194029742E+03

    ------------------------------------------------
       NWT REQUIRED           18 OUTER ITERATIONS 
       AND A TOTAL OF        155 INNER ITERATIONS.
    ------------------------------------------------

 NO OUTPUT CONTROL FOR STRESS PERIOD   66   TIME STEP    6
 
 SOLVING FOR HEAD 
                                                   Max.-Head-Change                         Max.-Flux-Residual
  Residual-Control   Outer-Iter.   Inner-Iter.     Column Row Layer    Maximum-Head-Change  Column Row Layer    Maximum-Flux-Residual          L2-NORM 
          0                 1          11            29   53     1       0.2741652954E+01      29   53    2         0.6445813867E+05      0.5725968018E+06
          0                 2          10            28   49     2      -0.4495279861E+00      29   19    1        -0.1382221701E+05      0.6411362547E+05
          0                 3           8            28   49     2       0.1417806920E+01      28   49    2         0.3374213587E+05      0.3375548255E+05
          0                 4           9            28   49     2      -0.2601485403E+01      28   49    2        -0.6801103829E+05      0.6801126567E+05
          0                 5           9            28   49     2       0.5895910289E+01      28   49    2         0.1687447792E+06      0.1687450556E+06
          0                 6           9            28   49     2      -0.4439828736E+01      28   49    2        -0.1396475201E+06      0.1396488579E+06
          0                 7           8            28   49     2       0.1886755582E+00      28   49    2         0.6482288466E+04      0.6494978157E+04
          0                 8           8            28   49     1      -0.2870321712E+00      28   49    2        -0.1074163822E+05      0.1074216210E+05
          0                 9           8            28   49     2       0.3921349750E+00      28   49    2         0.1601185762E+05      0.1601201594E+05
          0                10           8            28   49     2      -0.4422202403E+00      28   49    2        -0.1965104435E+05      0.1965105026E+05
                                                   Max.-Head-Change                         Max.-Flux-Residual
  Residual-Control   Outer-Iter.   Inner-Iter.     Column Row Layer    Maximum-Head-Change  Column Row Layer    Maximum-Flux-Residual          L2-NORM 
          0                11           8            28   49     2       0.4351978778E+00      28   49    2         0.2100602985E+05      0.2100607191E+05
          0                12           8            28   49     2      -0.3643979514E+00      28   49    2        -0.1907435471E+05      0.1907437072E+05
          0                13           8            28   49     2       0.2466681055E+00      28   49    2         0.1396901239E+05      0.1396903393E+05
          0                14           8            28   49     2      -0.1477222040E+00      28   49    2        -0.9033669861E+04      0.9033676129E+04
          0                15           7            28   49     2       0.6747278537E-01      28   49    2         0.4445021744E+04      0.4445029143E+04
          0                16           7            28   49     2      -0.2579996905E-01      28   49    2        -0.1826730364E+04      0.1826730896E+04
          0                17           6            28   49     2       0.7233474763E-02      28   49    2         0.5491945334E+03      0.5491969212E+03

    ------------------------------------------------
       NWT REQUIRED           17 OUTER ITERATIONS 
       AND A TOTAL OF        140 INNER ITERATIONS.
    ------------------------------------------------

 NO OUTPUT CONTROL FOR STRESS PERIOD   66   TIME STEP    7
 
 SOLVING FOR HEAD 
                                                   Max.-Head-Change                         Max.-Flux-Residual
  Residual-Control   Outer-Iter.   Inner-Iter.     Column Row Layer    Maximum-Head-Change  Column Row Layer    Maximum-Flux-Residual          L2-NORM 
          0                 1          11            29   53     1       0.2356846632E+01      29   53    2         0.5514572982E+05      0.5535364644E+06
          0                 2          10            28   49     2      -0.6894782398E+00      29   19    2         0.1464977807E+05      0.6087164883E+05
          0                 3           9            28   49     2       0.2165814080E+01      28   49    2         0.5161938719E+05      0.5167000432E+05
          0                 4           9            28   49     2      -0.2948726667E+01      28   49    2        -0.7724608467E+05      0.7724664338E+05
          0                 5           9            28   49     2       0.4925903067E+01      28   49    2         0.1412320828E+06      0.1412325002E+06
          0                 6           9            28   49     2      -0.3816675585E+01      28   49    2        -0.1201898240E+06      0.1201908691E+06
          0                 7           8            28   49     2       0.5211048360E+00      28   49    2         0.1791193362E+05      0.1791535778E+05
          0                 8           8            28   49     2      -0.7280000258E+00      28   49    2        -0.2730922060E+05      0.2730927188E+05
          0                 9           9            28   49     2       0.9514155507E+00      28   49    2         0.3890249993E+05      0.3890263164E+05
          0                10           9            28   49     2      -0.9526475887E+00      28   49    2        -0.4241281320E+05      0.4241285957E+05
                                                   Max.-Head-Change                         Max.-Flux-Residual
  Residual-Control   Outer-Iter.   Inner-Iter.     Column Row Layer    Maximum-Head-Change  Column Row Layer    Maximum-Flux-Residual          L2-NORM 
          0                11           9            28   49     2       0.8073948506E+00      28   49    2         0.3902994081E+05      0.3903001486E+05
          0                12           8            28   49     2      -0.6279797373E+00      28   49    2        -0.3292944704E+05      0.3292948032E+05
          0                13           8            28   49     2       0.3654471645E+00      28   49    2         0.2072835448E+05      0.2072839414E+05
          0                14           8            28   49     2      -0.2084692274E+00      28   49    2        -0.1276977132E+05      0.1276977883E+05
          0                15           8            28   49     2       0.8568373792E-01      28   49    2         0.5653896579E+04      0.5653911035E+04
          0                16           7            28   49     2      -0.3036900120E-01      28   49    2        -0.2153745931E+04      0.2153747607E+04
          0                17           6            28   49     2       0.7592979120E-02      28   49    2         0.5774450247E+03      0.5774566891E+03

    ------------------------------------------------
       NWT REQUIRED           17 OUTER ITERATIONS 
       AND A TOTAL OF        145 INNER ITERATIONS.
    ------------------------------------------------

 NO OUTPUT CONTROL FOR STRESS PERIOD   66   TIME STEP    8
 
 SOLVING FOR HEAD 
                                                   Max.-Head-Change                         Max.-Flux-Residual
  Residual-Control   Outer-Iter.   Inner-Iter.     Column Row Layer    Maximum-Head-Change  Column Row Layer    Maximum-Flux-Residual          L2-NORM 
          0                 1          11            22   44     2      -0.3115930560E+01      29   53    2         0.4746102674E+05      0.5378407661E+06
          0                 2          10            28   49     2      -0.7627511449E+00      28   49    2        -0.1614288144E+05      0.6005103219E+05
          0                 3           9            28   49     2       0.2327248766E+01      28   49    2         0.5556483467E+05      0.5559101366E+05
          0                 4           9            28   49     2      -0.2890375198E+01      28   49    2        -0.7586261252E+05      0.7586401798E+05
          0                 5           9            28   49     2       0.4154162980E+01      28   49    2         0.1193372288E+06      0.1193382714E+06
          0                 6           9            28   49     2      -0.3277342021E+01      28   49    2        -0.1033591271E+06      0.1033605434E+06
          0                 7           8            28   49     2       0.6738980621E+00      28   49    2         0.2320088146E+05      0.2320581132E+05
          0                 8           8            28   49     2      -0.8703942585E+00      28   49    2        -0.3271408347E+05      0.3271619188E+05
          0                 9           9            28   49     2       0.1052591837E+01      28   49    2         0.4311600328E+05      0.4311772104E+05
          0                10           9            28   49     2      -0.9769595869E+00      28   49    2        -0.4357634349E+05      0.4357797138E+05
                                                   Max.-Head-Change                         Max.-Flux-Residual
  Residual-Control   Outer-Iter.   Inner-Iter.     Column Row Layer    Maximum-Head-Change  Column Row Layer    Maximum-Flux-Residual          L2-NORM 
          0                11           8            28   49     2       0.7287939200E+00      28   49    2         0.3529510129E+05      0.3529711443E+05
          0                12           8            28   49     2      -0.5383991278E+00      28   49    2        -0.2828260432E+05      0.2828504295E+05
          0                13           8            28   49     2       0.2898028014E+00      28   49    2         0.1646818591E+05      0.1647235751E+05
          0                14           8            28   49     2      -0.1528518121E+00      28   49    2        -0.9379688568E+04      0.9386937877E+04
          0                15           7            28   49     2       0.5734399085E-01      28   49    2         0.3790895634E+04      0.3808765943E+04
          0                16           7            28   49     2      -0.1798100840E-01      28   49    2        -0.1277451193E+04      0.1329414228E+04
          0                17           6            28   49     2       0.3881645717E-02      62   37    3        -0.3676927305E+03      0.4719056637E+03

    ------------------------------------------------
       NWT REQUIRED           17 OUTER ITERATIONS 
       AND A TOTAL OF        143 INNER ITERATIONS.
    ------------------------------------------------

 NO OUTPUT CONTROL FOR STRESS PERIOD   66   TIME STEP    9
 
 SOLVING FOR HEAD 
                                                   Max.-Head-Change                         Max.-Flux-Residual
  Residual-Control   Outer-Iter.   Inner-Iter.     Column Row Layer    Maximum-Head-Change  Column Row Layer    Maximum-Flux-Residual          L2-NORM 
          0                 1          11            29   53     1       0.1789034742E+01      29   53    2         0.4119152670E+05      0.5247936650E+06
          0                 2          10            28   49     2      -0.7829025205E+00      28   49    2        -0.1658851372E+05      0.5920931273E+05
          0                 3           9            28   49     2       0.2290380738E+01      28   49    2         0.5478923639E+05      0.5482028024E+05
          0                 4           9            28   49     2      -0.2693657121E+01      28   49    2        -0.7083560799E+05      0.7083932001E+05
          0                 5           9            28   49     2       0.3457764700E+01      28   49    2         0.9953108995E+05      0.9953384380E+05
          0                 6           9            28   49     2      -0.2769684303E+01      28   49    2        -0.8748784446E+05      0.8748839641E+05
          0                 7           8            28   49     2       0.7480677137E+00      28   49    2         0.2580184721E+05      0.2580298530E+05
          0                 8           8            28   49     2      -0.8936525487E+00      28   49    2        -0.3365487471E+05      0.3365487867E+05
          0                 9           9            28   49     2       0.9815466050E+00      28   49    2         0.4028389590E+05      0.4028401145E+05
          0                10           9            28   49     2      -0.8631975815E+00      28   49    2        -0.3857535691E+05      0.3857539793E+05
                                                   Max.-Head-Change                         Max.-Flux-Residual
  Residual-Control   Outer-Iter.   Inner-Iter.     Column Row Layer    Maximum-Head-Change  Column Row Layer    Maximum-Flux-Residual          L2-NORM 
          0                11           8            28   49     2       0.5862229048E+00      28   49    2         0.2844637301E+05      0.2844644373E+05
          0                12           8            28   49     2      -0.4073159777E+00      28   49    2        -0.2143698712E+05      0.2143700037E+05
          0                13           8            28   49     2       0.2029179416E+00      28   49    2         0.1155321265E+05      0.1155324585E+05
          0                14           8            28   49     2      -0.9635905958E-01      28   49    2        -0.5924290459E+04      0.5924291987E+04
          0                15           7            28   49     2       0.3223587975E-01      28   49    2         0.2135148434E+04      0.2135160537E+04
          0                16           6            28   49     2      -0.8585083322E-02      28   49    2        -0.6110831283E+03      0.6110864618E+03

    ------------------------------------------------
       NWT REQUIRED           16 OUTER ITERATIONS 
       AND A TOTAL OF        136 INNER ITERATIONS.
    ------------------------------------------------

 NO OUTPUT CONTROL FOR STRESS PERIOD   66   TIME STEP   10
 
 SOLVING FOR HEAD 
                                                   Max.-Head-Change                         Max.-Flux-Residual
  Residual-Control   Outer-Iter.   Inner-Iter.     Column Row Layer    Maximum-Head-Change  Column Row Layer    Maximum-Flux-Residual          L2-NORM 
          0                 1          11            60   92     2      -0.2473405917E+01      29   53    2         0.3608687560E+05      0.5132193611E+06
          0                 2          10            37   71     2      -0.1911007179E+01      28   49    2        -0.1655575848E+05      0.5494315969E+05
          0                 3           9            28   49     2       0.2164095334E+01      28   49    2         0.5186886284E+05      0.5760126213E+05
          0                 4           9            28   49     2      -0.2435490364E+01      28   49    2        -0.6416831989E+05      0.6420850216E+05
          0                 5           9            28   49     2       0.2810959896E+01      28   49    2         0.8107832013E+05      0.8107900596E+05
          0                 6           9            28   49     2      -0.2287146454E+01      28   49    2        -0.7236452664E+05      0.7236494017E+05
          0                 7           8            28   49     2       0.7737196433E+00      28   49    2         0.2673678920E+05      0.2673753316E+05
          0                 8           8            28   49     2      -0.8529373317E+00      28   49    2        -0.3218523611E+05      0.3218524304E+05
          0                 9           8            28   49     2       0.8359227575E+00      28   49    2         0.3437523926E+05      0.3437534644E+05
          0                10           8            28   49     2      -0.6982324544E+00      28   49    2        -0.3126234194E+05      0.3126237623E+05
                                                   Max.-Head-Change                         Max.-Flux-Residual
  Residual-Control   Outer-Iter.   Inner-Iter.     Column Row Layer    Maximum-Head-Change  Column Row Layer    Maximum-Flux-Residual          L2-NORM 
          0                11           8            28   49     2       0.4369716610E+00      28   49    2         0.2124580544E+05      0.2124586542E+05
          0                12           8            28   49     2      -0.2797080524E+00      28   49    2        -0.1474872388E+05      0.1474873450E+05
          0                13           8            28   49     2       0.1266037809E+00      28   49    2         0.7222707778E+04      0.7222729634E+04
          0                14           7            28   49     2      -0.5236105212E-01      28   49    2        -0.3225334251E+04      0.3225334916E+04
          0                15           7            28   49     2       0.1505906917E-01      28   49    2         0.9994882102E+03      0.9994959233E+03
          0                16           6            28   49     1      -0.3223580769E-02      28   49    2        -0.2298293713E+03      0.2298328534E+03

    ------------------------------------------------
       NWT REQUIRED           16 OUTER ITERATIONS 
       AND A TOTAL OF        133 INNER ITERATIONS.
    ------------------------------------------------

 NO OUTPUT CONTROL FOR STRESS PERIOD   66   TIME STEP   11
 
 SOLVING FOR HEAD 
                                                   Max.-Head-Change                         Max.-Flux-Residual
  Residual-Control   Outer-Iter.   Inner-Iter.     Column Row Layer    Maximum-Head-Change  Column Row Layer    Maximum-Flux-Residual          L2-NORM 
          0                 1          11            29   53     1       0.1410994692E+01      32   24    1         0.3202411489E+05      0.5034588035E+06
          0                 2          10            61   36     2      -0.1173800729E+02      28   49    2        -0.1556084218E+05      0.5571682342E+05
          0                 3           9            61   36     2       0.5873907927E+01      28   49    2         0.4554279321E+05      0.4621663558E+05
          0                 4           9            28   49     2      -0.2086129423E+01      28   49    2        -0.5507885506E+05      0.5507997346E+05
          0                 5           9            28   49     2       0.2252909023E+01      28   49    2         0.6513031289E+05      0.6513039073E+05
          0                 6           9            28   49     2      -0.1852469376E+01      28   49    2        -0.5872472019E+05      0.5872480383E+05
          0                 7           8            28   49     2       0.7319086879E+00      28   49    2         0.2535199423E+05      0.2535209183E+05
          0                 8           8            28   49     2      -0.7458807525E+00      28   49    2        -0.2820221863E+05      0.2820222343E+05
          0                 9           8            28   49     2       0.6460960807E+00      28   49    2         0.2662699401E+05      0.2662701251E+05
          0                10           8            28   49     2      -0.5069661860E+00      28   49    2        -0.2274374404E+05      0.2274375131E+05
                                                   Max.-Head-Change                         Max.-Flux-Residual
  Residual-Control   Outer-Iter.   Inner-Iter.     Column Row Layer    Maximum-Head-Change  Column Row Layer    Maximum-Flux-Residual          L2-NORM 
          0                11           8            28   49     2       0.2912921338E+00      28   49    2         0.1419393781E+05      0.1419394653E+05
          0                12           8            28   49     2      -0.1663917353E+00      28   49    2        -0.8791131988E+04      0.8791133867E+04
          0                13           7            28   49     2       0.6648989447E-01      28   49    2         0.3801602738E+04      0.3801605583E+04
          0                14           7            28   49     2      -0.2283899956E-01      28   49    2        -0.1409521856E+04      0.1409522047E+04
          0                15           6            28   49     2       0.5322873313E-02      28   49    2         0.3541815811E+03      0.3541827950E+03

    ------------------------------------------------
       NWT REQUIRED           15 OUTER ITERATIONS 
       AND A TOTAL OF        125 INNER ITERATIONS.
    ------------------------------------------------

 OUTPUT CONTROL FOR STRESS PERIOD   66   TIME STEP   12
    SAVE BUDGET
    SAVE HEAD FOR LAYERS:   1  2  3
 UBDSV1 SAVING "         STORAGE" ON UNIT  39 AT TIME STEP 12, STRESS PERIOD  66
 UBDSV2 SAVING "   CONSTANT HEAD" ON UNIT  39 AT TIME STEP 12, STRESS PERIOD  66
 UBDSV1 SAVING "FLOW RIGHT FACE " ON UNIT  39 AT TIME STEP 12, STRESS PERIOD  66
 UBDSV1 SAVING "FLOW FRONT FACE " ON UNIT  39 AT TIME STEP 12, STRESS PERIOD  66
 UBDSV1 SAVING "FLOW LOWER FACE " ON UNIT  39 AT TIME STEP 12, STRESS PERIOD  66
 UBDSV4 SAVING "           WELLS" ON UNIT  39 AT TIME STEP 12, STRESS PERIOD  66
 UBDSV3 SAVING "              ET" ON UNIT  39 AT TIME STEP 12, STRESS PERIOD  66
 UBDSV3 SAVING "        RECHARGE" ON UNIT  39 AT TIME STEP 12, STRESS PERIOD  66

 HEAD WILL BE SAVED ON UNIT   31 AT END OF TIME STEP   12, STRESS PERIOD   66
1
  VOLUMETRIC BUDGET FOR ENTIRE MODEL AT END OF TIME STEP   12, STRESS PERIOD  66
  ------------------------------------------------------------------------------

     CUMULATIVE VOLUMES      L**3       RATES FOR THIS TIME STEP      L**3/T
     ------------------                 ------------------------

           IN:                                      IN:
           ---                                      ---
             STORAGE =427769102336.0000               STORAGE =    11849765.0000
       CONSTANT HEAD = 45127524352.0000         CONSTANT HEAD =     2429908.0000
               WELLS = 29546039296.0000                 WELLS =     1225642.0000
                  ET =           0.0000                    ET =           0.0000
            RECHARGE =509429645312.0000              RECHARGE =    34611836.0000

            TOTAL IN =       1.0119E+12              TOTAL IN =    50117152.0000

          OUT:                                     OUT:
          ----                                     ----
             STORAGE =108238848000.0000               STORAGE =    12804453.0000
       CONSTANT HEAD = 71612162048.0000         CONSTANT HEAD =     1784725.8750
               WELLS =808643067904.0000                 WELLS =    35033368.0000
                  ET = 23377356800.0000                    ET =      494665.4375
            RECHARGE =           0.0000              RECHARGE =           0.0000

           TOTAL OUT =       1.0119E+12             TOTAL OUT =    50117208.0000

            IN - OUT =      851968.0000              IN - OUT =         -56.0000

 PERCENT DISCREPANCY =           0.00     PERCENT DISCREPANCY =          -0.00






         TIME SUMMARY AT END OF TIME STEP   12 IN STRESS PERIOD   66
                    SECONDS     MINUTES      HOURS       DAYS        YEARS
                    -----------------------------------------------------------
   TIME STEP LENGTH 2.62800E+06  43800.      730.00      30.417     8.32763E-02
 STRESS PERIOD TIME 3.15360E+07 5.25600E+05  8760.0      365.00     0.99932    
         TOTAL TIME 2.08284E+09 3.47140E+07 5.78566E+05  24107.      66.001    
1
1
                            STRESS PERIOD NO.   67, LENGTH =   365.0000    
                            -----------------------------------------------

                              NUMBER OF TIME STEPS =    12

                               MULTIPLIER FOR DELT =     1.000

                            INITIAL TIME STEP SIZE =   30.41667    

   1596 WELLS

 REUSING SURF FROM LAST STRESS PERIOD

 REUSING EVTR FROM LAST STRESS PERIOD

 REUSING EXDP FROM LAST STRESS PERIOD



                           RECHARGE
 READING ON UNIT   16 WITH FORMAT: (15F5.0)            


     63 TIME-VARIANT SPECIFIED-HEAD CELLS
 
 SOLVING FOR HEAD 
                                                   Max.-Head-Change                         Max.-Flux-Residual
  Residual-Control   Outer-Iter.   Inner-Iter.     Column Row Layer    Maximum-Head-Change  Column Row Layer    Maximum-Flux-Residual          L2-NORM 
          0                 1          12            92   77     2       0.9187950719E+02      28   52    3        -0.3822482013E+06      0.1267567312E+07
          0                 2          10            92   77     2       0.2984044185E+02      88   67    1        -0.6748461713E+06      0.7554123618E+06
          0                 3           6            92   77     2      -0.2258799565E+02      92   77    2        -0.6822299941E+06      0.6830802969E+06
          0                 4           4            91   77     2       0.5842170508E+01      92   77    2        -0.7111857937E+04      0.8644263212E+04
          0                 5           3            91   77     2       0.9337837623E+00      91   77    2         0.3981648690E+03      0.5381353190E+03
          0                 6           2            91   77     2       0.1452041692E+00      91   77    2         0.6169919639E+02      0.7673342134E+02
          0                 7           2            91   77     2       0.2258056856E-01      91   77    2         0.9567148986E+01      0.1309436794E+02
          0                 8           2            91   77     2       0.3509767811E-02      91   77    3         0.1885308687E+01      0.2416566839E+01

    ------------------------------------------------
       NWT REQUIRED            8 OUTER ITERATIONS 
       AND A TOTAL OF         41 INNER ITERATIONS.
    ------------------------------------------------

 NO OUTPUT CONTROL FOR STRESS PERIOD   67   TIME STEP    1
 
 SOLVING FOR HEAD 
                                                   Max.-Head-Change                         Max.-Flux-Residual
  Residual-Control   Outer-Iter.   Inner-Iter.     Column Row Layer    Maximum-Head-Change  Column Row Layer    Maximum-Flux-Residual          L2-NORM 
          0                 1          11            28   50     2       0.1063267666E+02      30   52    2         0.2554687668E+06      0.8510307013E+06
          0                 2          10            30   54     1      -0.1322309838E+01      30   54    1        -0.6960367695E+05      0.1144154077E+06
          0                 3           6            41   75     2       0.9728493942E-01      63   96    1         0.1361076337E+04      0.1576002915E+04
          0                 4           3            41   75     2       0.1038470026E-02      43   31    1         0.6452580512E+01      0.1033584216E+02

    ------------------------------------------------
       NWT REQUIRED            4 OUTER ITERATIONS 
       AND A TOTAL OF         30 INNER ITERATIONS.
    ------------------------------------------------

 NO OUTPUT CONTROL FOR STRESS PERIOD   67   TIME STEP    2
 
 SOLVING FOR HEAD 
                                                   Max.-Head-Change                         Max.-Flux-Residual
  Residual-Control   Outer-Iter.   Inner-Iter.     Column Row Layer    Maximum-Head-Change  Column Row Layer    Maximum-Flux-Residual          L2-NORM 
          0                 1          11            28   50     2       0.7090058758E+01      30   52    2         0.1547634869E+06      0.7264355007E+06
          0                 2          10            30   52     1      -0.9746610976E+00      30   52    1        -0.3898146214E+05      0.8735768283E+05
          0                 3           6            36   19     3      -0.1079563279E-01      43   31    1         0.4002402458E+03      0.6129389245E+03
          0                 4           4            60   93     1      -0.6247425992E-03      60   93    2        -0.2767223005E+02      0.2969536816E+02

    ------------------------------------------------
       NWT REQUIRED            4 OUTER ITERATIONS 
       AND A TOTAL OF         31 INNER ITERATIONS.
    ------------------------------------------------

 NO OUTPUT CONTROL FOR STRESS PERIOD   67   TIME STEP    3
 
 SOLVING FOR HEAD 
                                                   Max.-Head-Change                         Max.-Flux-Residual
  Residual-Control   Outer-Iter.   Inner-Iter.     Column Row Layer    Maximum-Head-Change  Column Row Layer    Maximum-Flux-Residual          L2-NORM 
          0                 1          11            28   50     2       0.5054347512E+01      28   50    2         0.1026034483E+06      0.6640585368E+06
          0                 2          10            60   93     2      -0.2048475082E+01      31   21    1        -0.1467591941E+05      0.7126161069E+05
          0                 3           6            36   71     2      -0.2407973127E+00      36   71    2        -0.7707208082E+04      0.7781003532E+04
          0                 4           4            36   71     2      -0.2150224575E-01      36   71    2        -0.6887596194E+03      0.6890245239E+03
          0                 5           3            36   71     2      -0.1933796601E-02      36   71    2        -0.6193391239E+02      0.6194645617E+02

    ------------------------------------------------
       NWT REQUIRED            5 OUTER ITERATIONS 
       AND A TOTAL OF         34 INNER ITERATIONS.
    ------------------------------------------------

 NO OUTPUT CONTROL FOR STRESS PERIOD   67   TIME STEP    4
 
 SOLVING FOR HEAD 
                                                   Max.-Head-Change                         Max.-Flux-Residual
  Residual-Control   Outer-Iter.   Inner-Iter.     Column Row Layer    Maximum-Head-Change  Column Row Layer    Maximum-Flux-Residual          L2-NORM 
          0                 1          11            28   49     2       0.4462244660E+01      28   50    2         0.7346229599E+05      0.6267484589E+06
          0                 2          10            36   71     2      -0.2823341197E+01      61   83    1        -0.1220780373E+05      0.6421194686E+05
          0                 3           6            36   71     2       0.1933480320E+00      36   71    2         0.2425785968E+03      0.3686818208E+03
          0                 4           4            36   71     2       0.4328984171E-02      43   31    1         0.7826176584E+01      0.1029756216E+02

    ------------------------------------------------
       NWT REQUIRED            4 OUTER ITERATIONS 
       AND A TOTAL OF         31 INNER ITERATIONS.
    ------------------------------------------------

 NO OUTPUT CONTROL FOR STRESS PERIOD   67   TIME STEP    5
 
 SOLVING FOR HEAD 
                                                   Max.-Head-Change                         Max.-Flux-Residual
  Residual-Control   Outer-Iter.   Inner-Iter.     Column Row Layer    Maximum-Head-Change  Column Row Layer    Maximum-Flux-Residual          L2-NORM 
          0                 1          11            28   49     2       0.4050664304E+01      28   49    2         0.6487522223E+05      0.6016784130E+06
          0                 2          10            85   52     2       0.1257851056E+01      85   52    2         0.1126774005E+05      0.6294862873E+05
          0                 3           6            85   52     2      -0.1143429854E+00      85   52    2        -0.1126057804E+04      0.1539430999E+04
          0                 4           3            59   97     1       0.4692781540E-03      35   54    3         0.3176859140E+01      0.4765144284E+01

    ------------------------------------------------
       NWT REQUIRED            4 OUTER ITERATIONS 
       AND A TOTAL OF         30 INNER ITERATIONS.
    ------------------------------------------------

 NO OUTPUT CONTROL FOR STRESS PERIOD   67   TIME STEP    6
 
 SOLVING FOR HEAD 
                                                   Max.-Head-Change                         Max.-Flux-Residual
  Residual-Control   Outer-Iter.   Inner-Iter.     Column Row Layer    Maximum-Head-Change  Column Row Layer    Maximum-Flux-Residual          L2-NORM 
          0                 1          11            28   49     2       0.3659482181E+01      28   49    2         0.5889480531E+05      0.5841656394E+06
          0                 2          10            28   49     2      -0.3418072245E+00      69   21    1        -0.1100396444E+05      0.6030634690E+05
          0                 3           6            30   45     2      -0.4541698144E-02      92   74    2        -0.1063720338E+02      0.4367940755E+02

    ------------------------------------------------
       NWT REQUIRED            3 OUTER ITERATIONS 
       AND A TOTAL OF         27 INNER ITERATIONS.
    ------------------------------------------------

 NO OUTPUT CONTROL FOR STRESS PERIOD   67   TIME STEP    7
 
 SOLVING FOR HEAD 
                                                   Max.-Head-Change                         Max.-Flux-Residual
  Residual-Control   Outer-Iter.   Inner-Iter.     Column Row Layer    Maximum-Head-Change  Column Row Layer    Maximum-Flux-Residual          L2-NORM 
          0                 1          11            28   49     2       0.3308639360E+01      28   49    2         0.5323110570E+05      0.5679739241E+06
          0                 2          10            28   49     2      -0.3080814670E+00      30   19    1        -0.9356144916E+04      0.5926480522E+05
          0                 3           7            30   19     2       0.1443223711E-01      30   19    2         0.1845121008E+04      0.2030363683E+04
          0                 4           5            30   19     2       0.1299536261E-02      30   19    2         0.1660443232E+03      0.1660626490E+03

    ------------------------------------------------
       NWT REQUIRED            4 OUTER ITERATIONS 
       AND A TOTAL OF         33 INNER ITERATIONS.
    ------------------------------------------------

 NO OUTPUT CONTROL FOR STRESS PERIOD   67   TIME STEP    8
 
 SOLVING FOR HEAD 
                                                   Max.-Head-Change                         Max.-Flux-Residual
  Residual-Control   Outer-Iter.   Inner-Iter.     Column Row Layer    Maximum-Head-Change  Column Row Layer    Maximum-Flux-Residual          L2-NORM 
          0                 1          11            28   49     2       0.3001547962E+01      28   49    2         0.4814531629E+05      0.5543569605E+06
          0                 2          10            32   49     2      -0.3278864059E+00      30   19    2         0.9705718256E+04      0.5856657726E+05
          0                 3           6            72   95     1       0.1183614209E-01      30   19    2        -0.8477369402E+03      0.9205875047E+03
          0                 4           3            85   85     2      -0.3266691973E-03      26   49    2         0.2253361292E+01      0.2315935034E+01

    ------------------------------------------------
       NWT REQUIRED            4 OUTER ITERATIONS 
       AND A TOTAL OF         30 INNER ITERATIONS.
    ------------------------------------------------

 NO OUTPUT CONTROL FOR STRESS PERIOD   67   TIME STEP    9
 
 SOLVING FOR HEAD 
                                                   Max.-Head-Change                         Max.-Flux-Residual
  Residual-Control   Outer-Iter.   Inner-Iter.     Column Row Layer    Maximum-Head-Change  Column Row Layer    Maximum-Flux-Residual          L2-NORM 
          0                 1          11            70   19     2       0.3161625586E+01      28   49    2         0.4369130632E+05      0.5426599148E+06
          0                 2          10            25   53     2      -0.4245295559E+00      25   53    2        -0.1625272201E+05      0.6246064405E+05
          0                 3           6            77   76     1       0.2968409678E-01      63  112    1        -0.9710465330E+03      0.1155043331E+04
          0                 4           5            63  112     1      -0.2512506872E-02      63  112    1        -0.8742108286E+02      0.9902093470E+02

    ------------------------------------------------
       NWT REQUIRED            4 OUTER ITERATIONS 
       AND A TOTAL OF         32 INNER ITERATIONS.
    ------------------------------------------------

 NO OUTPUT CONTROL FOR STRESS PERIOD   67   TIME STEP   10
 
 SOLVING FOR HEAD 
                                                   Max.-Head-Change                         Max.-Flux-Residual
  Residual-Control   Outer-Iter.   Inner-Iter.     Column Row Layer    Maximum-Head-Change  Column Row Layer    Maximum-Flux-Residual          L2-NORM 
          0                 1          11            28   49     2       0.2506859693E+01      70   19    1         0.4116775269E+05      0.5328859108E+06
          0                 2          10            34   67     2      -0.1201963468E+01      15   16    1        -0.1101716927E+05      0.5628018171E+05
          0                 3           6            34   67     2       0.5795719131E-01      28   18    2        -0.9655887541E+03      0.1086821242E+04
          0                 4           3            34   67     1       0.2522928724E-02      34   67    2         0.1600432163E+01      0.3088826133E+01

    ------------------------------------------------
       NWT REQUIRED            4 OUTER ITERATIONS 
       AND A TOTAL OF         30 INNER ITERATIONS.
    ------------------------------------------------

 NO OUTPUT CONTROL FOR STRESS PERIOD   67   TIME STEP   11
 
 SOLVING FOR HEAD 
                                                   Max.-Head-Change                         Max.-Flux-Residual
  Residual-Control   Outer-Iter.   Inner-Iter.     Column Row Layer    Maximum-Head-Change  Column Row Layer    Maximum-Flux-Residual          L2-NORM 
          0                 1          11            34   67     2      -0.3612479233E+01      70   19    1         0.3856730036E+05      0.5237649761E+06
          0                 2          10            61   83     2       0.2231821868E+00      31   19    1        -0.8908733086E+04      0.5462172303E+05
          0                 3           6            61   83     2      -0.2031741217E-01      61   83    2        -0.7983921496E+03      0.8357423943E+03
          0                 4           3            34   67     1       0.3181379563E-03      14   19    2         0.6650371896E+00      0.8228046008E+00

    ------------------------------------------------
       NWT REQUIRED            4 OUTER ITERATIONS 
       AND A TOTAL OF         30 INNER ITERATIONS.
    ------------------------------------------------

 OUTPUT CONTROL FOR STRESS PERIOD   67   TIME STEP   12
    SAVE BUDGET
 UBDSV1 SAVING "         STORAGE" ON UNIT  39 AT TIME STEP 12, STRESS PERIOD  67
 UBDSV2 SAVING "   CONSTANT HEAD" ON UNIT  39 AT TIME STEP 12, STRESS PERIOD  67
 UBDSV1 SAVING "FLOW RIGHT FACE " ON UNIT  39 AT TIME STEP 12, STRESS PERIOD  67
 UBDSV1 SAVING "FLOW FRONT FACE " ON UNIT  39 AT TIME STEP 12, STRESS PERIOD  67
 UBDSV1 SAVING "FLOW LOWER FACE " ON UNIT  39 AT TIME STEP 12, STRESS PERIOD  67
 UBDSV4 SAVING "           WELLS" ON UNIT  39 AT TIME STEP 12, STRESS PERIOD  67
 UBDSV3 SAVING "              ET" ON UNIT  39 AT TIME STEP 12, STRESS PERIOD  67
 UBDSV3 SAVING "        RECHARGE" ON UNIT  39 AT TIME STEP 12, STRESS PERIOD  67
1
  VOLUMETRIC BUDGET FOR ENTIRE MODEL AT END OF TIME STEP   12, STRESS PERIOD  67
  ------------------------------------------------------------------------------

     CUMULATIVE VOLUMES      L**3       RATES FOR THIS TIME STEP      L**3/T
     ------------------                 ------------------------

           IN:                                      IN:
           ---                                      ---
             STORAGE =431473590272.0000               STORAGE =     9114127.0000
       CONSTANT HEAD = 46047588352.0000         CONSTANT HEAD =     2556078.7500
               WELLS = 29993396224.0000                 WELLS =     1225642.0000
                  ET =           0.0000                    ET =           0.0000
            RECHARGE =524312084480.0000              RECHARGE =    40774220.0000

            TOTAL IN =       1.0318E+12              TOTAL IN =    53670072.0000

          OUT:                                     OUT:
          ----                                     ----
             STORAGE =114332860416.0000               STORAGE =    15617749.0000
       CONSTANT HEAD = 72277876736.0000         CONSTANT HEAD =     1847939.7500
               WELLS =821621751808.0000                 WELLS =    35560308.0000
                  ET = 23593236480.0000                    ET =      644073.6875
            RECHARGE =           0.0000              RECHARGE =           0.0000

           TOTAL OUT =       1.0318E+12             TOTAL OUT =    53670068.0000

            IN - OUT =      851968.0000              IN - OUT =           4.0000

 PERCENT DISCREPANCY =           0.00     PERCENT DISCREPANCY =           0.00






         TIME SUMMARY AT END OF TIME STEP   12 IN STRESS PERIOD   67
                    SECONDS     MINUTES      HOURS       DAYS        YEARS
                    -----------------------------------------------------------
   TIME STEP LENGTH 2.62800E+06  43800.      730.00      30.417     8.32763E-02
 STRESS PERIOD TIME 3.15360E+07 5.25600E+05  8760.0      365.00     0.99932    
         TOTAL TIME 2.11437E+09 3.52396E+07 5.87326E+05  24472.      67.000    
1
1
                            STRESS PERIOD NO.   68, LENGTH =   365.0000    
                            -----------------------------------------------

                              NUMBER OF TIME STEPS =    12

                               MULTIPLIER FOR DELT =     1.000

                            INITIAL TIME STEP SIZE =   30.41667    

   1568 WELLS

 REUSING SURF FROM LAST STRESS PERIOD

 REUSING EVTR FROM LAST STRESS PERIOD

 REUSING EXDP FROM LAST STRESS PERIOD



                           RECHARGE
 READING ON UNIT   16 WITH FORMAT: (15F5.0)            


     63 TIME-VARIANT SPECIFIED-HEAD CELLS
 
 SOLVING FOR HEAD 
                                                   Max.-Head-Change                         Max.-Flux-Residual
  Residual-Control   Outer-Iter.   Inner-Iter.     Column Row Layer    Maximum-Head-Change  Column Row Layer    Maximum-Flux-Residual          L2-NORM 
          0                 1          12            84   50     3       0.4954182883E+02      29   52    3        -0.3565808878E+06      0.1130931951E+07
          0                 2          10            84   50     3      -0.4458770050E+01      29   52    3         0.3565808935E+05      0.1135564776E+06
          0                 3           6            66   19     1       0.1444251263E+00      66   19    2        -0.1601727926E+04      0.2282554872E+04
          0                 4           5            65    5     2       0.5428865591E-02      30   53    3        -0.2074155107E+02      0.2638791018E+02

    ------------------------------------------------
       NWT REQUIRED            4 OUTER ITERATIONS 
       AND A TOTAL OF         33 INNER ITERATIONS.
    ------------------------------------------------

 NO OUTPUT CONTROL FOR STRESS PERIOD   68   TIME STEP    1
 
 SOLVING FOR HEAD 
                                                   Max.-Head-Change                         Max.-Flux-Residual
  Residual-Control   Outer-Iter.   Inner-Iter.     Column Row Layer    Maximum-Head-Change  Column Row Layer    Maximum-Flux-Residual          L2-NORM 
          0                 1          11            65    5     2      -0.2305162371E+02      29   54    2        -0.1512087305E+06      0.6180262015E+06
          0                 2          10            77   46     1      -0.2413057622E+01      29   54    2         0.1427242906E+05      0.6427985475E+05
          0                 3           6            77   46     1       0.1961540201E+00      76   70    1         0.8592482886E+03      0.1524038288E+04
          0                 4           4            65    5     2       0.3231273821E-02      44   32    1        -0.1410482293E+02      0.1699430887E+02

    ------------------------------------------------
       NWT REQUIRED            4 OUTER ITERATIONS 
       AND A TOTAL OF         31 INNER ITERATIONS.
    ------------------------------------------------

 NO OUTPUT CONTROL FOR STRESS PERIOD   68   TIME STEP    2
 
 SOLVING FOR HEAD 
                                                   Max.-Head-Change                         Max.-Flux-Residual
  Residual-Control   Outer-Iter.   Inner-Iter.     Column Row Layer    Maximum-Head-Change  Column Row Layer    Maximum-Flux-Residual          L2-NORM 
          0                 1          11            80   52     3       0.2035388006E+01      29   54    2        -0.7543428394E+05      0.5176588717E+06
          0                 2           9            74   83     2       0.6022347345E+00      29   54    2         0.7347330125E+04      0.5248711598E+05
          0                 3           6            74   83     2      -0.5474887462E-01      43   32    1        -0.3297064740E+04      0.3346364365E+04
          0                 4           4            43   32     1      -0.2801413849E-02      43   32    1        -0.2969109192E+03      0.2969803670E+03

    ------------------------------------------------
       NWT REQUIRED            4 OUTER ITERATIONS 
       AND A TOTAL OF         30 INNER ITERATIONS.
    ------------------------------------------------

 NO OUTPUT CONTROL FOR STRESS PERIOD   68   TIME STEP    3
 
 SOLVING FOR HEAD 
                                                   Max.-Head-Change                         Max.-Flux-Residual
  Residual-Control   Outer-Iter.   Inner-Iter.     Column Row Layer    Maximum-Head-Change  Column Row Layer    Maximum-Flux-Residual          L2-NORM 
          0                 1          11            62   96     1      -0.1460736558E+01      62   96    2        -0.5112214337E+05      0.4693550088E+06
          0                 2           9            38   71     2      -0.6619980060E+00      33   33    1        -0.1294481893E+05      0.5000534582E+05
          0                 3           6            38   71     2       0.4750256276E-01      43   32    1         0.1010895599E+04      0.1104043554E+04
          0                 4           4            38   71     2       0.9193058695E-03      44   32    1        -0.7731463373E+01      0.8453503616E+01

    ------------------------------------------------
       NWT REQUIRED            4 OUTER ITERATIONS 
       AND A TOTAL OF         30 INNER ITERATIONS.
    ------------------------------------------------

 NO OUTPUT CONTROL FOR STRESS PERIOD   68   TIME STEP    4
 
 SOLVING FOR HEAD 
                                                   Max.-Head-Change                         Max.-Flux-Residual
  Residual-Control   Outer-Iter.   Inner-Iter.     Column Row Layer    Maximum-Head-Change  Column Row Layer    Maximum-Flux-Residual          L2-NORM 
          0                 1          11            38   71     2      -0.2601987683E+01      62   96    2        -0.4823986510E+05      0.4401267702E+06
          0                 2           9            38   71     2       0.1786598922E+00      24   27    1        -0.8668924741E+04      0.4548226910E+05
          0                 3           6            38   71     2       0.3409831195E-02      44   32    1        -0.2546179299E+03      0.2837917953E+03

    ------------------------------------------------
       NWT REQUIRED            3 OUTER ITERATIONS 
       AND A TOTAL OF         26 INNER ITERATIONS.
    ------------------------------------------------

 NO OUTPUT CONTROL FOR STRESS PERIOD   68   TIME STEP    5
 
 SOLVING FOR HEAD 
                                                   Max.-Head-Change                         Max.-Flux-Residual
  Residual-Control   Outer-Iter.   Inner-Iter.     Column Row Layer    Maximum-Head-Change  Column Row Layer    Maximum-Flux-Residual          L2-NORM 
          0                 1          11            62   96     1      -0.1342227920E+01      62   96    2        -0.4593634760E+05      0.4205086888E+06
          0                 2           9            62   96     1       0.1184272742E+00      62   96    2         0.4580368406E+04      0.4230466952E+05
          0                 3           6            44   32     1      -0.2516114628E-02      44   32    1        -0.2408949293E+03      0.3271610239E+03

    ------------------------------------------------
       NWT REQUIRED            3 OUTER ITERATIONS 
       AND A TOTAL OF         26 INNER ITERATIONS.
    ------------------------------------------------

 NO OUTPUT CONTROL FOR STRESS PERIOD   68   TIME STEP    6
 
 SOLVING FOR HEAD 
                                                   Max.-Head-Change                         Max.-Flux-Residual
  Residual-Control   Outer-Iter.   Inner-Iter.     Column Row Layer    Maximum-Head-Change  Column Row Layer    Maximum-Flux-Residual          L2-NORM 
          0                 1          11            62   96     1      -0.1298030637E+01      62   96    2        -0.4406704427E+05      0.4059909690E+06
          0                 2           9            78   52     1      -0.4684339580E+00      78   52    1        -0.1600559666E+05      0.4547679128E+05
          0                 3           6            43   31     1      -0.2560097227E-02      43   31    1        -0.2607918984E+03      0.3460119546E+03

    ------------------------------------------------
       NWT REQUIRED            3 OUTER ITERATIONS 
       AND A TOTAL OF         26 INNER ITERATIONS.
    ------------------------------------------------

 NO OUTPUT CONTROL FOR STRESS PERIOD   68   TIME STEP    7
 
 SOLVING FOR HEAD 
                                                   Max.-Head-Change                         Max.-Flux-Residual
  Residual-Control   Outer-Iter.   Inner-Iter.     Column Row Layer    Maximum-Head-Change  Column Row Layer    Maximum-Flux-Residual          L2-NORM 
          0                 1          11            62   96     1      -0.1260873021E+01      62   96    2        -0.4252695852E+05      0.3947164902E+06
          0                 2           9            74   65     1      -0.3534962346E+00      38   23    1        -0.1161875537E+05      0.4212060459E+05
          0                 3           6            74   65     1       0.2731883519E-01      43   31    1        -0.3043734282E+03      0.4703416814E+03
          0                 4           4            74   65     1       0.3753225918E-03      44   32    1        -0.7842225254E+01      0.8880081496E+01

    ------------------------------------------------
       NWT REQUIRED            4 OUTER ITERATIONS 
       AND A TOTAL OF         30 INNER ITERATIONS.
    ------------------------------------------------

 NO OUTPUT CONTROL FOR STRESS PERIOD   68   TIME STEP    8
 
 SOLVING FOR HEAD 
                                                   Max.-Head-Change                         Max.-Flux-Residual
  Residual-Control   Outer-Iter.   Inner-Iter.     Column Row Layer    Maximum-Head-Change  Column Row Layer    Maximum-Flux-Residual          L2-NORM 
          0                 1          11            74   65     1      -0.2681531830E+01      62   96    2        -0.4123989860E+05      0.3855004272E+06
          0                 2           9            65   92     1      -0.2633487495E+00      62   96    2         0.4113708648E+04      0.3880750091E+05
          0                 3           6            65   92     1       0.2277816166E-01      43   31    1        -0.3333287450E+03      0.4135612253E+03
          0                 4           4            85   85     2      -0.2994693277E-03      44   32    1        -0.6984587669E+01      0.7117900081E+01

    ------------------------------------------------
       NWT REQUIRED            4 OUTER ITERATIONS 
       AND A TOTAL OF         30 INNER ITERATIONS.
    ------------------------------------------------

 NO OUTPUT CONTROL FOR STRESS PERIOD   68   TIME STEP    9
 
 SOLVING FOR HEAD 
                                                   Max.-Head-Change                         Max.-Flux-Residual
  Residual-Control   Outer-Iter.   Inner-Iter.     Column Row Layer    Maximum-Head-Change  Column Row Layer    Maximum-Flux-Residual          L2-NORM 
          0                 1          11            62   96     1      -0.1202025775E+01      62   96    2        -0.4015018257E+05      0.3782063281E+06
          0                 2           9            39   71     2      -0.1918535032E+01      18   12    2         0.4140422913E+04      0.3845961634E+05
          0                 3           6            39   71     2       0.1401940506E+00      43   31    1        -0.3507663097E+03      0.6086719112E+03
          0                 4           4            39   71     2       0.2482315519E-02      44   32    1        -0.6278301060E+01      0.7890992693E+01

    ------------------------------------------------
       NWT REQUIRED            4 OUTER ITERATIONS 
       AND A TOTAL OF         30 INNER ITERATIONS.
    ------------------------------------------------

 NO OUTPUT CONTROL FOR STRESS PERIOD   68   TIME STEP   10
 
 SOLVING FOR HEAD 
                                                   Max.-Head-Change                         Max.-Flux-Residual
  Residual-Control   Outer-Iter.   Inner-Iter.     Column Row Layer    Maximum-Head-Change  Column Row Layer    Maximum-Flux-Residual          L2-NORM 
          0                 1          11            39   71     2      -0.1188247061E+01      62   96    2        -0.3921660129E+05      0.3719590699E+06
          0                 2           9            64   26     2       0.1133981009E+00      64   26    2         0.5271011819E+04      0.3792155219E+05
          0                 3           6            43   31     1      -0.3448630216E-02      43   31    1        -0.3594363296E+03      0.4191692750E+03

    ------------------------------------------------
       NWT REQUIRED            3 OUTER ITERATIONS 
       AND A TOTAL OF         26 INNER ITERATIONS.
    ------------------------------------------------

 NO OUTPUT CONTROL FOR STRESS PERIOD   68   TIME STEP   11
 
 SOLVING FOR HEAD 
                                                   Max.-Head-Change                         Max.-Flux-Residual
  Residual-Control   Outer-Iter.   Inner-Iter.     Column Row Layer    Maximum-Head-Change  Column Row Layer    Maximum-Flux-Residual          L2-NORM 
          0                 1          11            62   96     1      -0.1157626651E+01      62   96    2        -0.3840829780E+05      0.3664968790E+06
          0                 2           9            40   62     2      -0.5293142663E+00      64   95    2         0.6301639366E+04      0.3773210398E+05
          0                 3           6            83   52     1      -0.2208481530E+00      83   52    1        -0.1108207998E+05      0.1109594882E+05
          0                 4           4            83   52     1      -0.1990655261E-01      83   52    1        -0.1000594925E+04      0.1002148516E+04
          0                 5           3            83   52     1      -0.1790024364E-02      83   52    1        -0.8996317173E+02      0.9010073207E+02

    ------------------------------------------------
       NWT REQUIRED            5 OUTER ITERATIONS 
       AND A TOTAL OF         33 INNER ITERATIONS.
    ------------------------------------------------

 OUTPUT CONTROL FOR STRESS PERIOD   68   TIME STEP   12
    SAVE BUDGET
 UBDSV1 SAVING "         STORAGE" ON UNIT  39 AT TIME STEP 12, STRESS PERIOD  68
 UBDSV2 SAVING "   CONSTANT HEAD" ON UNIT  39 AT TIME STEP 12, STRESS PERIOD  68
 UBDSV1 SAVING "FLOW RIGHT FACE " ON UNIT  39 AT TIME STEP 12, STRESS PERIOD  68
 UBDSV1 SAVING "FLOW FRONT FACE " ON UNIT  39 AT TIME STEP 12, STRESS PERIOD  68
 UBDSV1 SAVING "FLOW LOWER FACE " ON UNIT  39 AT TIME STEP 12, STRESS PERIOD  68
 UBDSV4 SAVING "           WELLS" ON UNIT  39 AT TIME STEP 12, STRESS PERIOD  68
 UBDSV3 SAVING "              ET" ON UNIT  39 AT TIME STEP 12, STRESS PERIOD  68
 UBDSV3 SAVING "        RECHARGE" ON UNIT  39 AT TIME STEP 12, STRESS PERIOD  68
1
  VOLUMETRIC BUDGET FOR ENTIRE MODEL AT END OF TIME STEP   12, STRESS PERIOD  68
  ------------------------------------------------------------------------------

     CUMULATIVE VOLUMES      L**3       RATES FOR THIS TIME STEP      L**3/T
     ------------------                 ------------------------

           IN:                                      IN:
           ---                                      ---
             STORAGE =435508543488.0000               STORAGE =    10059390.0000
       CONSTANT HEAD = 46970679296.0000         CONSTANT HEAD =     2519820.2500
               WELLS = 30440753152.0000                 WELLS =     1225642.0000
                  ET =           0.0000                    ET =           0.0000
            RECHARGE =537219006464.0000              RECHARGE =    35361772.0000

            TOTAL IN =       1.0501E+12              TOTAL IN =    49166624.0000

          OUT:                                     OUT:
          ----                                     ----
             STORAGE =118222225408.0000               STORAGE =     9710084.0000
       CONSTANT HEAD = 72952676352.0000         CONSTANT HEAD =     1865895.3750
               WELLS =835176955904.0000                 WELLS =    37124872.0000
                  ET = 23786166272.0000                    ET =      465781.7812
            RECHARGE =           0.0000              RECHARGE =           0.0000

           TOTAL OUT =       1.0501E+12             TOTAL OUT =    49166632.0000

            IN - OUT =     1048576.0000              IN - OUT =          -8.0000

 PERCENT DISCREPANCY =           0.00     PERCENT DISCREPANCY =          -0.00






         TIME SUMMARY AT END OF TIME STEP   12 IN STRESS PERIOD   68
                    SECONDS     MINUTES      HOURS       DAYS        YEARS
                    -----------------------------------------------------------
   TIME STEP LENGTH 2.62800E+06  43800.      730.00      30.417     8.32763E-02
 STRESS PERIOD TIME 3.15360E+07 5.25600E+05  8760.0      365.00     0.99932    
         TOTAL TIME 2.14591E+09 3.57652E+07 5.96086E+05  24837.      68.000    
1
1
                            STRESS PERIOD NO.   69, LENGTH =   366.0000    
                            -----------------------------------------------

                              NUMBER OF TIME STEPS =    12

                               MULTIPLIER FOR DELT =     1.000

                            INITIAL TIME STEP SIZE =   30.50000    

   1551 WELLS

 REUSING SURF FROM LAST STRESS PERIOD

 REUSING EVTR FROM LAST STRESS PERIOD

 REUSING EXDP FROM LAST STRESS PERIOD



                           RECHARGE
 READING ON UNIT   16 WITH FORMAT: (15F5.0)            


     63 TIME-VARIANT SPECIFIED-HEAD CELLS
 
 SOLVING FOR HEAD 
                                                   Max.-Head-Change                         Max.-Flux-Residual
  Residual-Control   Outer-Iter.   Inner-Iter.     Column Row Layer    Maximum-Head-Change  Column Row Layer    Maximum-Flux-Residual          L2-NORM 
          0                 1          11            84   56     3       0.1936545097E+02      30   53    1         0.1935451724E+06      0.9112803990E+06
          0                 2          10            61   34     3       0.9062449301E+01      61   34    3         0.1626725431E+06      0.1872173684E+06
          0                 3           6            60   34     3      -0.3730995250E+00      76   67    1        -0.5349412406E+04      0.7694850321E+04
          0                 4           5            60   34     3      -0.3357698054E-01      76   67    1        -0.4825139237E+03      0.6709889346E+03
          0                 5           4            60   34     3      -0.3018912452E-02      76   67    1        -0.4338679042E+02      0.6033113996E+02

    ------------------------------------------------
       NWT REQUIRED            5 OUTER ITERATIONS 
       AND A TOTAL OF         36 INNER ITERATIONS.
    ------------------------------------------------

 NO OUTPUT CONTROL FOR STRESS PERIOD   69   TIME STEP    1
 
 SOLVING FOR HEAD 
                                                   Max.-Head-Change                         Max.-Flux-Residual
  Residual-Control   Outer-Iter.   Inner-Iter.     Column Row Layer    Maximum-Head-Change  Column Row Layer    Maximum-Flux-Residual          L2-NORM 
          0                 1          11            31   61     2       0.4738759422E+01      31   61    2         0.1415741973E+06      0.6058435586E+06
          0                 2          10            76   67     1      -0.3697946720E+01      31   61    2        -0.1462328305E+05      0.6142690666E+05
          0                 3           6            72   15     1      -0.2608295562E+00      72   15    1        -0.9593250612E+04      0.9613537978E+04
          0                 4           4            72   15     1      -0.2349819603E-01      72   15    1        -0.8640335271E+03      0.8641357694E+03
          0                 5           3            72   15     1      -0.2112891302E-02      72   15    1        -0.7768186107E+02      0.7768797028E+02

    ------------------------------------------------
       NWT REQUIRED            5 OUTER ITERATIONS 
       AND A TOTAL OF         34 INNER ITERATIONS.
    ------------------------------------------------

 NO OUTPUT CONTROL FOR STRESS PERIOD   69   TIME STEP    2
 
 SOLVING FOR HEAD 
                                                   Max.-Head-Change                         Max.-Flux-Residual
  Residual-Control   Outer-Iter.   Inner-Iter.     Column Row Layer    Maximum-Head-Change  Column Row Layer    Maximum-Flux-Residual          L2-NORM 
          0                 1          11            31   61     2       0.3976416258E+01      31   61    2         0.1181008852E+06      0.5283533543E+06
          0                 2          10            72   15     1      -0.3846369044E+01      72   15    1        -0.2085327116E+05      0.5731434662E+05
          0                 3           6            72   15     1       0.3314571706E+00      72   15    1         0.1979136817E+04      0.2078690865E+04
          0                 4           2            72   15     1       0.1553621021E-02      72   15    1         0.9138485152E+01      0.9268337803E+01

    ------------------------------------------------
       NWT REQUIRED            4 OUTER ITERATIONS 
       AND A TOTAL OF         29 INNER ITERATIONS.
    ------------------------------------------------

 NO OUTPUT CONTROL FOR STRESS PERIOD   69   TIME STEP    3
 
 SOLVING FOR HEAD 
                                                   Max.-Head-Change                         Max.-Flux-Residual
  Residual-Control   Outer-Iter.   Inner-Iter.     Column Row Layer    Maximum-Head-Change  Column Row Layer    Maximum-Flux-Residual          L2-NORM 
          0                 1          11            31   61     2       0.3367469590E+01      31   61    2         0.9919587637E+05      0.4871189157E+06
          0                 2          10            92   77     2      -0.6850248396E+01      32   61    2        -0.1012899771E+05      0.4971030966E+05
          0                 3           6            84   50     2      -0.7113676249E-01      70   19    1        -0.2365510782E+04      0.2437101773E+04
          0                 4           3            70   19     1      -0.5120486932E-02      70   19    1        -0.2129228953E+03      0.2129386709E+03

    ------------------------------------------------
       NWT REQUIRED            4 OUTER ITERATIONS 
       AND A TOTAL OF         30 INNER ITERATIONS.
    ------------------------------------------------

 NO OUTPUT CONTROL FOR STRESS PERIOD   69   TIME STEP    4
 
 SOLVING FOR HEAD 
                                                   Max.-Head-Change                         Max.-Flux-Residual
  Residual-Control   Outer-Iter.   Inner-Iter.     Column Row Layer    Maximum-Head-Change  Column Row Layer    Maximum-Flux-Residual          L2-NORM 
          0                 1          11            92   77     2      -0.5369933510E+02      31   61    2         0.8399469381E+05      0.4608104793E+06
          0                 2          10            70   19     1      -0.2697868864E+01      70   19    1        -0.1997793723E+05      0.5136623488E+05
          0                 3           6            70   19     1       0.2351065735E+00      70   19    1         0.1916778289E+04      0.2091629526E+04
          0                 4           2            92   77     2       0.2995323138E-02      70   19    1         0.7029439375E+01      0.7295136297E+01

    ------------------------------------------------
       NWT REQUIRED            4 OUTER ITERATIONS 
       AND A TOTAL OF         29 INNER ITERATIONS.
    ------------------------------------------------

 NO OUTPUT CONTROL FOR STRESS PERIOD   69   TIME STEP    5
 
 SOLVING FOR HEAD 
                                                   Max.-Head-Change                         Max.-Flux-Residual
  Residual-Control   Outer-Iter.   Inner-Iter.     Column Row Layer    Maximum-Head-Change  Column Row Layer    Maximum-Flux-Residual          L2-NORM 
          0                 1          11            31   61     2       0.2480372799E+01      31   61    2         0.7176635417E+05      0.4432519935E+06
          0                 2          10            56   32     2      -0.4424857761E+00      31   61    2        -0.7264758257E+04      0.4511928648E+05
          0                 3           5            56   32     2       0.3424407459E-01      63  111    1        -0.6315796479E+03      0.6448973025E+03
          0                 4           2            63  111     1      -0.1624957840E-02      63  111    1        -0.5685393078E+02      0.5688201838E+02

    ------------------------------------------------
       NWT REQUIRED            4 OUTER ITERATIONS 
       AND A TOTAL OF         28 INNER ITERATIONS.
    ------------------------------------------------

 NO OUTPUT CONTROL FOR STRESS PERIOD   69   TIME STEP    6
 
 SOLVING FOR HEAD 
                                                   Max.-Head-Change                         Max.-Flux-Residual
  Residual-Control   Outer-Iter.   Inner-Iter.     Column Row Layer    Maximum-Head-Change  Column Row Layer    Maximum-Flux-Residual          L2-NORM 
          0                 1          11            56   32     2      -0.2225149302E+01      31   61    2         0.6190912028E+05      0.4296883878E+06
          0                 2          10            35   71     2      -0.2124213872E+01      26   55    2        -0.1078418318E+05      0.4460837775E+05
          0                 3           6            35   71     2       0.1392634110E+00      25   30    2        -0.3349921814E+03      0.4373568313E+03
          0                 4           3            35   71     2       0.3526566633E-02      35   71    2         0.3891867531E+01      0.5376551116E+01

    ------------------------------------------------
       NWT REQUIRED            4 OUTER ITERATIONS 
       AND A TOTAL OF         30 INNER ITERATIONS.
    ------------------------------------------------

 NO OUTPUT CONTROL FOR STRESS PERIOD   69   TIME STEP    7
 
 SOLVING FOR HEAD 
                                                   Max.-Head-Change                         Max.-Flux-Residual
  Residual-Control   Outer-Iter.   Inner-Iter.     Column Row Layer    Maximum-Head-Change  Column Row Layer    Maximum-Flux-Residual          L2-NORM 
          0                 1          11            31   61     2       0.1894740550E+01      31   61    2         0.5387236585E+05      0.4190934003E+06
          0                 2          10            67   99     1      -0.2809909953E+00      61   66    2         0.6832948859E+04      0.4282627131E+05
          0                 3           6            67   99     1       0.2284899609E-01      65   53    2        -0.4852090686E+03      0.5533311228E+03
          0                 4           2            85   85     2      -0.2373289944E-03      67   99    1         0.5590729741E+00      0.6008906792E+00

    ------------------------------------------------
       NWT REQUIRED            4 OUTER ITERATIONS 
       AND A TOTAL OF         29 INNER ITERATIONS.
    ------------------------------------------------

 NO OUTPUT CONTROL FOR STRESS PERIOD   69   TIME STEP    8
 
 SOLVING FOR HEAD 
                                                   Max.-Head-Change                         Max.-Flux-Residual
  Residual-Control   Outer-Iter.   Inner-Iter.     Column Row Layer    Maximum-Head-Change  Column Row Layer    Maximum-Flux-Residual          L2-NORM 
          0                 1          11            31   61     2       0.1680082556E+01      31   61    2         0.4731801632E+05      0.4106481504E+06
          0                 2          10            82   60     1      -0.3269756319E+01      26   31    1        -0.7558377070E+04      0.4325162582E+05
          0                 3           6            82   60     1       0.1867892009E+00      44   32    1         0.6531727431E+03      0.7313404052E+03
          0                 4           3            82   60     1       0.6293313751E-02      82   60    1         0.6207609620E+01      0.6464480554E+01

    ------------------------------------------------
       NWT REQUIRED            4 OUTER ITERATIONS 
       AND A TOTAL OF         30 INNER ITERATIONS.
    ------------------------------------------------

 NO OUTPUT CONTROL FOR STRESS PERIOD   69   TIME STEP    9
 
 SOLVING FOR HEAD 
                                                   Max.-Head-Change                         Max.-Flux-Residual
  Residual-Control   Outer-Iter.   Inner-Iter.     Column Row Layer    Maximum-Head-Change  Column Row Layer    Maximum-Flux-Residual          L2-NORM 
          0                 1          11            82   60     1      -0.2872202893E+01      31   61    2         0.4196386524E+05      0.4036858097E+06
          0                 2          10            82   60     1       0.1643824443E+00      21   24    1        -0.8671451767E+04      0.4241938704E+05
          0                 3           6            67   53     2      -0.1100181289E-01      67   53    2        -0.3911466050E+03      0.5685486679E+03
          0                 4           2            85   85     2      -0.2345685163E-03      62  100    1        -0.2244251668E+00      0.3860205994E+00

    ------------------------------------------------
       NWT REQUIRED            4 OUTER ITERATIONS 
       AND A TOTAL OF         29 INNER ITERATIONS.
    ------------------------------------------------

 NO OUTPUT CONTROL FOR STRESS PERIOD   69   TIME STEP   10
 
 SOLVING FOR HEAD 
                                                   Max.-Head-Change                         Max.-Flux-Residual
  Residual-Control   Outer-Iter.   Inner-Iter.     Column Row Layer    Maximum-Head-Change  Column Row Layer    Maximum-Flux-Residual          L2-NORM 
          0                 1          11            31   61     2       0.1359010518E+01      31   61    2         0.3757251527E+05      0.3979113151E+06
          0                 2          10            73   15     3       0.4312227122E+00      73   15    3         0.1269451613E+05      0.4266299470E+05
          0                 3           7            64  101     1      -0.7596148843E-01      64  101    1        -0.3218254730E+04      0.3901164005E+04
          0                 4           3            64  101     1      -0.6853259665E-02      64  101    1        -0.2902063729E+03      0.3458114068E+03

    ------------------------------------------------
       NWT REQUIRED            4 OUTER ITERATIONS 
       AND A TOTAL OF         31 INNER ITERATIONS.
    ------------------------------------------------

 NO OUTPUT CONTROL FOR STRESS PERIOD   69   TIME STEP   11
 
 SOLVING FOR HEAD 
                                                   Max.-Head-Change                         Max.-Flux-Residual
  Residual-Control   Outer-Iter.   Inner-Iter.     Column Row Layer    Maximum-Head-Change  Column Row Layer    Maximum-Flux-Residual          L2-NORM 
          0                 1          11            64   94     1      -0.1266929296E+01      61   96    2        -0.3469337554E+05      0.3928137256E+06
          0                 2          10            64   95     1      -0.5786224737E+00      64   95    1        -0.8279613415E+04      0.4151012708E+05
          0                 3           5            64   95     1       0.5144506449E-01      64   95    1         0.8098178390E+03      0.9637013180E+03
          0                 4           2            69   98     1       0.4000029745E-03      64   95    1         0.1513530448E+01      0.1869828452E+01

    ------------------------------------------------
       NWT REQUIRED            4 OUTER ITERATIONS 
       AND A TOTAL OF         28 INNER ITERATIONS.
    ------------------------------------------------

 OUTPUT CONTROL FOR STRESS PERIOD   69   TIME STEP   12
    SAVE BUDGET
 UBDSV1 SAVING "         STORAGE" ON UNIT  39 AT TIME STEP 12, STRESS PERIOD  69
 UBDSV2 SAVING "   CONSTANT HEAD" ON UNIT  39 AT TIME STEP 12, STRESS PERIOD  69
 UBDSV1 SAVING "FLOW RIGHT FACE " ON UNIT  39 AT TIME STEP 12, STRESS PERIOD  69
 UBDSV1 SAVING "FLOW FRONT FACE " ON UNIT  39 AT TIME STEP 12, STRESS PERIOD  69
 UBDSV1 SAVING "FLOW LOWER FACE " ON UNIT  39 AT TIME STEP 12, STRESS PERIOD  69
 UBDSV4 SAVING "           WELLS" ON UNIT  39 AT TIME STEP 12, STRESS PERIOD  69
 UBDSV3 SAVING "              ET" ON UNIT  39 AT TIME STEP 12, STRESS PERIOD  69
 UBDSV3 SAVING "        RECHARGE" ON UNIT  39 AT TIME STEP 12, STRESS PERIOD  69
1
  VOLUMETRIC BUDGET FOR ENTIRE MODEL AT END OF TIME STEP   12, STRESS PERIOD  69
  ------------------------------------------------------------------------------

     CUMULATIVE VOLUMES      L**3       RATES FOR THIS TIME STEP      L**3/T
     ------------------                 ------------------------

           IN:                                      IN:
           ---                                      ---
             STORAGE =439298785280.0000               STORAGE =     9724679.0000
       CONSTANT HEAD = 47897915392.0000         CONSTANT HEAD =     2548357.7500
               WELLS = 30889338880.0000                 WELLS =     1225642.0000
                  ET =           0.0000                    ET =           0.0000
            RECHARGE =550444400640.0000              RECHARGE =    36134860.0000

            TOTAL IN =       1.0685E+12              TOTAL IN =    49633540.0000

          OUT:                                     OUT:
          ----                                     ----
             STORAGE =122440949760.0000               STORAGE =    10960664.0000
       CONSTANT HEAD = 73569656832.0000         CONSTANT HEAD =     1629760.6250
               WELLS =848557309952.0000                 WELLS =    36557988.0000
                  ET = 23961647104.0000                    ET =      485128.8438
            RECHARGE =           0.0000              RECHARGE =           0.0000

           TOTAL OUT =       1.0685E+12             TOTAL OUT =    49633540.0000

            IN - OUT =      786432.0000              IN - OUT =           0.0000

 PERCENT DISCREPANCY =           0.00     PERCENT DISCREPANCY =           0.00






         TIME SUMMARY AT END OF TIME STEP   12 IN STRESS PERIOD   69
                    SECONDS     MINUTES      HOURS       DAYS        YEARS
                    -----------------------------------------------------------
   TIME STEP LENGTH 2.63520E+06  43920.      732.00      30.500     8.35044E-02
 STRESS PERIOD TIME 3.16224E+07 5.27040E+05  8784.0      366.00      1.0021    
         TOTAL TIME 2.17753E+09 3.62922E+07 6.04870E+05  25203.      69.002    
1
1
                            STRESS PERIOD NO.   70, LENGTH =   365.0000    
                            -----------------------------------------------

                              NUMBER OF TIME STEPS =    12

                               MULTIPLIER FOR DELT =     1.000

                            INITIAL TIME STEP SIZE =   30.41667    

   1401 WELLS

 REUSING SURF FROM LAST STRESS PERIOD

 REUSING EVTR FROM LAST STRESS PERIOD

 REUSING EXDP FROM LAST STRESS PERIOD



                           RECHARGE
 READING ON UNIT   16 WITH FORMAT: (15F5.0)            


     63 TIME-VARIANT SPECIFIED-HEAD CELLS
 
 SOLVING FOR HEAD 
                                                   Max.-Head-Change                         Max.-Flux-Residual
  Residual-Control   Outer-Iter.   Inner-Iter.     Column Row Layer    Maximum-Head-Change  Column Row Layer    Maximum-Flux-Residual          L2-NORM 
          0                 1          12            92   77     2      -0.7279126788E+02      32   60    1         0.3260381719E+06      0.1314579624E+07
          0                 2          10            92   77     2       0.3184778242E+02      34   67    2        -0.4603674341E+05      0.1518968988E+06
          0                 3           7            92   77     2       0.1510961744E+01      34   67    3        -0.2311813235E+04      0.3609429235E+04
          0                 4           3            92   77     2       0.6526885535E-01      92   77    2         0.4112130992E+02      0.4364738140E+02
          0                 5           2            92   77     2       0.2847444700E-02      92   77    2         0.1794221681E+01      0.1955967899E+01

    ------------------------------------------------
       NWT REQUIRED            5 OUTER ITERATIONS 
       AND A TOTAL OF         34 INNER ITERATIONS.
    ------------------------------------------------

 NO OUTPUT CONTROL FOR STRESS PERIOD   70   TIME STEP    1
 
 SOLVING FOR HEAD 
                                                   Max.-Head-Change                         Max.-Flux-Residual
  Residual-Control   Outer-Iter.   Inner-Iter.     Column Row Layer    Maximum-Head-Change  Column Row Layer    Maximum-Flux-Residual          L2-NORM 
          0                 1          11            31   61     2       0.9454901773E+01      32   60    2         0.2931849484E+06      0.9642896863E+06
          0                 2          10            31   61     2      -0.8877550458E+00      44   32    1        -0.3220533105E+05      0.1071413561E+06
          0                 3           7            35   68     3       0.4246045544E-01      35   68    3         0.1729012101E+04      0.2153246624E+04
          0                 4           5            35   68     2       0.4404548697E-02      35   68    3         0.1556002969E+03      0.1585784266E+03

    ------------------------------------------------
       NWT REQUIRED            4 OUTER ITERATIONS 
       AND A TOTAL OF         33 INNER ITERATIONS.
    ------------------------------------------------

 NO OUTPUT CONTROL FOR STRESS PERIOD   70   TIME STEP    2
 
 SOLVING FOR HEAD 
                                                   Max.-Head-Change                         Max.-Flux-Residual
  Residual-Control   Outer-Iter.   Inner-Iter.     Column Row Layer    Maximum-Head-Change  Column Row Layer    Maximum-Flux-Residual          L2-NORM 
          0                 1          11            31   61     2       0.7752691593E+01      31   61    2         0.2359319198E+06      0.8269251146E+06
          0                 2          10            31   61     2      -0.7197302182E+00      44   32    2         0.3449610065E+05      0.9192814155E+05
          0                 3           7            35   68     3      -0.3096722288E-01      44   32    2        -0.3194477323E+04      0.3413877576E+04
          0                 4           3            85   85     2      -0.2590869124E-03      62   46    2        -0.7371908925E+00      0.1545129380E+01

    ------------------------------------------------
       NWT REQUIRED            4 OUTER ITERATIONS 
       AND A TOTAL OF         31 INNER ITERATIONS.
    ------------------------------------------------

 NO OUTPUT CONTROL FOR STRESS PERIOD   70   TIME STEP    3
 
 SOLVING FOR HEAD 
                                                   Max.-Head-Change                         Max.-Flux-Residual
  Residual-Control   Outer-Iter.   Inner-Iter.     Column Row Layer    Maximum-Head-Change  Column Row Layer    Maximum-Flux-Residual          L2-NORM 
          0                 1          11            31   61     2       0.6423356341E+01      31   61    2         0.1936956488E+06      0.7434715306E+06
          0                 2          10            74   66     1      -0.1192263674E+01      31   61    2        -0.1998507387E+05      0.7902646939E+05
          0                 3           6            74   66     1       0.9093050672E-01      74   66    1         0.1470129627E+03      0.1608486402E+03
          0                 4           3            74   66     1       0.1325718256E-02      74   66    1         0.2125986967E+01      0.2182938395E+01

    ------------------------------------------------
       NWT REQUIRED            4 OUTER ITERATIONS 
       AND A TOTAL OF         30 INNER ITERATIONS.
    ------------------------------------------------

 NO OUTPUT CONTROL FOR STRESS PERIOD   70   TIME STEP    4
 
 SOLVING FOR HEAD 
                                                   Max.-Head-Change                         Max.-Flux-Residual
  Residual-Control   Outer-Iter.   Inner-Iter.     Column Row Layer    Maximum-Head-Change  Column Row Layer    Maximum-Flux-Residual          L2-NORM 
          0                 1          11            31   61     2       0.5387269857E+01      31   61    2         0.1606281595E+06      0.6857033563E+06
          0                 2          10            31   61     2      -0.4932213285E+00      43   32    1        -0.2441279652E+05      0.7437674711E+05
          0                 3           6            73   15     2       0.3145321208E-01      73   15    2         0.2477609682E+03      0.3359628585E+03
          0                 4           2            73   15     1       0.3760972385E-03      73   15    1         0.8165118322E+00      0.1243963962E+01

    ------------------------------------------------
       NWT REQUIRED            4 OUTER ITERATIONS 
       AND A TOTAL OF         29 INNER ITERATIONS.
    ------------------------------------------------

 NO OUTPUT CONTROL FOR STRESS PERIOD   70   TIME STEP    5
 
 SOLVING FOR HEAD 
                                                   Max.-Head-Change                         Max.-Flux-Residual
  Residual-Control   Outer-Iter.   Inner-Iter.     Column Row Layer    Maximum-Head-Change  Column Row Layer    Maximum-Flux-Residual          L2-NORM 
          0                 1          11            31   61     2       0.4576258130E+01      31   61    2         0.1348016742E+06      0.6436233248E+06
          0                 2          10            31   61     2      -0.4169043498E+00      31   61    2        -0.1370865178E+05      0.6724707265E+05
          0                 3           6            59  118     1       0.1537215288E-01      27   33    2         0.4496785859E+03      0.5454455504E+03
          0                 4           5            27   33     2       0.4904642817E-03      27   33    2         0.4047041654E+02      0.4348101717E+02

    ------------------------------------------------
       NWT REQUIRED            4 OUTER ITERATIONS 
       AND A TOTAL OF         32 INNER ITERATIONS.
    ------------------------------------------------

 NO OUTPUT CONTROL FOR STRESS PERIOD   70   TIME STEP    6
 
 SOLVING FOR HEAD 
                                                   Max.-Head-Change                         Max.-Flux-Residual
  Residual-Control   Outer-Iter.   Inner-Iter.     Column Row Layer    Maximum-Head-Change  Column Row Layer    Maximum-Flux-Residual          L2-NORM 
          0                 1          11            31   61     2       0.3937829615E+01      31   61    2         0.1145696586E+06      0.6125489578E+06
          0                 2          10            73   11     2      -0.1112366783E+01      31   61    2        -0.1159909902E+05      0.6304674902E+05
          0                 3           6            73   11     2       0.6639493027E-01      24   28    2         0.6576740530E+03      0.9281375860E+03
          0                 4           5            73   11     2       0.2075594318E-02      24   28    2         0.5918793611E+02      0.5924484629E+02

    ------------------------------------------------
       NWT REQUIRED            4 OUTER ITERATIONS 
       AND A TOTAL OF         32 INNER ITERATIONS.
    ------------------------------------------------

 NO OUTPUT CONTROL FOR STRESS PERIOD   70   TIME STEP    7
 
 SOLVING FOR HEAD 
                                                   Max.-Head-Change                         Max.-Flux-Residual
  Residual-Control   Outer-Iter.   Inner-Iter.     Column Row Layer    Maximum-Head-Change  Column Row Layer    Maximum-Flux-Residual          L2-NORM 
          0                 1          11            88   67     1      -0.1954872374E+02      31   61    2         0.9862058902E+05      0.5875113565E+06
          0                 2          10            88   67     1       0.1155479021E+01      31   61    2        -0.9951709159E+04      0.5978188592E+05
          0                 3           6            88   67     1       0.3377062634E-01      62   97    1         0.8205520833E+03      0.9885661725E+03
          0                 4           2            88   67     1       0.9919918619E-03      88   67    1         0.1322718663E+01      0.1822416407E+01

    ------------------------------------------------
       NWT REQUIRED            4 OUTER ITERATIONS 
       AND A TOTAL OF         29 INNER ITERATIONS.
    ------------------------------------------------

 NO OUTPUT CONTROL FOR STRESS PERIOD   70   TIME STEP    8
 
 SOLVING FOR HEAD 
                                                   Max.-Head-Change                         Max.-Flux-Residual
  Residual-Control   Outer-Iter.   Inner-Iter.     Column Row Layer    Maximum-Head-Change  Column Row Layer    Maximum-Flux-Residual          L2-NORM 
          0                 1          11            31   61     2       0.3023534189E+01      31   61    2         0.8593936433E+05      0.5675753654E+06
          0                 2          10            65    7     2      -0.3866071573E+01      31   61    2        -0.8651191978E+04      0.5787682273E+05
          0                 3           6            69   47     1      -0.2053710371E+00      69   47    1        -0.1045083528E+05      0.1045731681E+05
          0                 4           3            69   47     1      -0.1852660956E-01      69   47    1        -0.9423275039E+03      0.9426475393E+03
          0                 5           2            69   47     1      -0.1666061323E-02      69   47    1        -0.8472956179E+02      0.8475488223E+02

    ------------------------------------------------
       NWT REQUIRED            5 OUTER ITERATIONS 
       AND A TOTAL OF         32 INNER ITERATIONS.
    ------------------------------------------------

 NO OUTPUT CONTROL FOR STRESS PERIOD   70   TIME STEP    9
 
 SOLVING FOR HEAD 
                                                   Max.-Head-Change                         Max.-Flux-Residual
  Residual-Control   Outer-Iter.   Inner-Iter.     Column Row Layer    Maximum-Head-Change  Column Row Layer    Maximum-Flux-Residual          L2-NORM 
          0                 1          11            65    7     2      -0.8055512849E+01      31   61    2         0.7575766911E+05      0.5505979393E+06
          0                 2          10            69   47     1      -0.5376115995E+01      69   47    1        -0.2950840226E+05      0.6296940767E+05
          0                 3           6            69   47     1       0.4512567499E+00      60   62    2        -0.3404011246E+04      0.4385734413E+04
          0                 4           4            60   62     2       0.2055812541E-01      60   62    2         0.1250826740E+04      0.1250960020E+04
          0                 5           3            60   62     2      -0.6265372181E-02      60   62    2        -0.4177700242E+03      0.4177703556E+03

    ------------------------------------------------
       NWT REQUIRED            5 OUTER ITERATIONS 
       AND A TOTAL OF         34 INNER ITERATIONS.
    ------------------------------------------------

 NO OUTPUT CONTROL FOR STRESS PERIOD   70   TIME STEP   10
 
 SOLVING FOR HEAD 
                                                   Max.-Head-Change                         Max.-Flux-Residual
  Residual-Control   Outer-Iter.   Inner-Iter.     Column Row Layer    Maximum-Head-Change  Column Row Layer    Maximum-Flux-Residual          L2-NORM 
          0                 1          11            31   61     2       0.2422947108E+01      31   61    2         0.6749781446E+05      0.5371712411E+06
          0                 2          10            60   62     2       0.4464115791E+00      60   62    2         0.2203629859E+05      0.5998792272E+05
          0                 3           6            60   62     2      -0.4097707278E+00      60   62    2        -0.2268436230E+05      0.2269285595E+05
          0                 4           4            60   62     2       0.2814461698E+00      60   62    2         0.1710101124E+05      0.1710101657E+05
          0                 5           4            60   62     2      -0.2202013161E+00      60   62    2        -0.1466780615E+05      0.1466780831E+05
          0                 6           4            60   62     2       0.1191477524E+00      60   62    2         0.8691242654E+04      0.8691244783E+04
          0                 7           4            60   62     2      -0.6730177105E-01      60   62    2        -0.5367407136E+04      0.5367407700E+04
          0                 8           4            60   62     2       0.2508382571E-01      60   62    2         0.2184782123E+04      0.2184782669E+04
          0                 9           3            60   62     2      -0.7914681158E-02      60   62    2        -0.7512629191E+03      0.7512629653E+03

    ------------------------------------------------
       NWT REQUIRED            9 OUTER ITERATIONS 
       AND A TOTAL OF         50 INNER ITERATIONS.
    ------------------------------------------------

 NO OUTPUT CONTROL FOR STRESS PERIOD   70   TIME STEP   11
 
 SOLVING FOR HEAD 
                                                   Max.-Head-Change                         Max.-Flux-Residual
  Residual-Control   Outer-Iter.   Inner-Iter.     Column Row Layer    Maximum-Head-Change  Column Row Layer    Maximum-Flux-Residual          L2-NORM 
          0                 1          11            31   61     2       0.2199096748E+01      31   61    2         0.6072636590E+05      0.5245094196E+06
          0                 2          10            60   62     2       0.3834690489E+00      60   62    2         0.1886820694E+05      0.5693287765E+05
          0                 3           7            60   62     2      -0.4726693534E+00      60   62    2        -0.2614671057E+05      0.2740472302E+05
          0                 4           5            60   62     2       0.5612396013E+00      60   62    2         0.3407084178E+05      0.3407885304E+05
          0                 5           5            60   62     2      -0.4741009955E+00      60   62    2        -0.3156580237E+05      0.3156587728E+05
          0                 6           5            60   62     2       0.2692471900E+00      60   62    2         0.1962809292E+05      0.1962809816E+05
          0                 7           4            60   62     2      -0.1993845501E+00      60   62    2        -0.1589146765E+05      0.1589146873E+05
          0                 8           4            60   62     2       0.1034059184E+00      60   62    2         0.9000185934E+04      0.9000187408E+04
          0                 9           4            60   62     2      -0.5250527904E-01      60   62    2        -0.4980989193E+04      0.4980989458E+04
          0                10           4            60   62     2       0.1786147367E-01      60   62    2         0.1844604368E+04      0.1844604736E+04
          0                11           3            60   62     2      -0.4837509963E-02      60   62    2        -0.5424518761E+03      0.5424518825E+03

    ------------------------------------------------
       NWT REQUIRED           11 OUTER ITERATIONS 
       AND A TOTAL OF         62 INNER ITERATIONS.
    ------------------------------------------------

 OUTPUT CONTROL FOR STRESS PERIOD   70   TIME STEP   12
    SAVE BUDGET
 UBDSV1 SAVING "         STORAGE" ON UNIT  39 AT TIME STEP 12, STRESS PERIOD  70
 UBDSV2 SAVING "   CONSTANT HEAD" ON UNIT  39 AT TIME STEP 12, STRESS PERIOD  70
 UBDSV1 SAVING "FLOW RIGHT FACE " ON UNIT  39 AT TIME STEP 12, STRESS PERIOD  70
 UBDSV1 SAVING "FLOW FRONT FACE " ON UNIT  39 AT TIME STEP 12, STRESS PERIOD  70
 UBDSV1 SAVING "FLOW LOWER FACE " ON UNIT  39 AT TIME STEP 12, STRESS PERIOD  70
 UBDSV4 SAVING "           WELLS" ON UNIT  39 AT TIME STEP 12, STRESS PERIOD  70
 UBDSV3 SAVING "              ET" ON UNIT  39 AT TIME STEP 12, STRESS PERIOD  70
 UBDSV3 SAVING "        RECHARGE" ON UNIT  39 AT TIME STEP 12, STRESS PERIOD  70
1
  VOLUMETRIC BUDGET FOR ENTIRE MODEL AT END OF TIME STEP   12, STRESS PERIOD  70
  ------------------------------------------------------------------------------

     CUMULATIVE VOLUMES      L**3       RATES FOR THIS TIME STEP      L**3/T
     ------------------                 ------------------------

           IN:                                      IN:
           ---                                      ---
             STORAGE =444072984576.0000               STORAGE =    12265395.0000
       CONSTANT HEAD = 48780988416.0000         CONSTANT HEAD =     2403230.7500
               WELLS = 31336695808.0000                 WELLS =     1225642.0000
                  ET =           0.0000                    ET =           0.0000
            RECHARGE =562203131904.0000              RECHARGE =    32214646.0000

            TOTAL IN =       1.0864E+12              TOTAL IN =    48108916.0000

          OUT:                                     OUT:
          ----                                     ----
             STORAGE =127411044352.0000               STORAGE =    12715251.0000
       CONSTANT HEAD = 74331840512.0000         CONSTANT HEAD =     2266357.5000
               WELLS =860570845184.0000                 WELLS =    32900420.0000
                  ET = 24078948352.0000                    ET =      226788.0781
            RECHARGE =           0.0000              RECHARGE =           0.0000

           TOTAL OUT =       1.0864E+12             TOTAL OUT =    48108816.0000

            IN - OUT =     1114112.0000              IN - OUT =         100.0000

 PERCENT DISCREPANCY =           0.00     PERCENT DISCREPANCY =           0.00






         TIME SUMMARY AT END OF TIME STEP   12 IN STRESS PERIOD   70
                    SECONDS     MINUTES      HOURS       DAYS        YEARS
                    -----------------------------------------------------------
   TIME STEP LENGTH 2.62800E+06  43800.      730.00      30.417     8.32763E-02
 STRESS PERIOD TIME 3.15360E+07 5.25600E+05  8760.0      365.00     0.99932    
         TOTAL TIME 2.20907E+09 3.68178E+07 6.13630E+05  25568.      70.001    
1
1
                            STRESS PERIOD NO.   71, LENGTH =   365.0000    
                            -----------------------------------------------

                              NUMBER OF TIME STEPS =    12

                               MULTIPLIER FOR DELT =     1.000

                            INITIAL TIME STEP SIZE =   30.41667    

   1471 WELLS

 REUSING SURF FROM LAST STRESS PERIOD

 REUSING EVTR FROM LAST STRESS PERIOD

 REUSING EXDP FROM LAST STRESS PERIOD



                           RECHARGE
 READING ON UNIT   16 WITH FORMAT: (15F5.0)            


     63 TIME-VARIANT SPECIFIED-HEAD CELLS
 
 SOLVING FOR HEAD 
                                                   Max.-Head-Change                         Max.-Flux-Residual
  Residual-Control   Outer-Iter.   Inner-Iter.     Column Row Layer    Maximum-Head-Change  Column Row Layer    Maximum-Flux-Residual          L2-NORM 
          0                 1          12            32   61     1       0.3960795667E+02      29   52    2        -0.8985739509E+06      0.2413094263E+07
          0                 2          11            32   61     1      -0.2393369969E+02      32   61    1        -0.1053414535E+07      0.1248197228E+07
          0                 3           8            32   61     1      -0.6227115821E+00      32   61    1        -0.2643448033E+05      0.3116460700E+05
          0                 4           5            33   61     1       0.4172181920E-01      32   62    1         0.6077706244E+03      0.1171739111E+04
          0                 5           4            33   61     1       0.3835645973E-02      32   62    1         0.5579942532E+02      0.1065502771E+03

    ------------------------------------------------
       NWT REQUIRED            5 OUTER ITERATIONS 
       AND A TOTAL OF         40 INNER ITERATIONS.
    ------------------------------------------------

 NO OUTPUT CONTROL FOR STRESS PERIOD   71   TIME STEP    1

 INTERPOLATION FOR HEAD OBS#  641, ID 3014-71-54   CHANGED BECAUSE AT LEAST ONE
 NEIGHBORING CELL REQUIRED FOR INTERPOLATION IS DRY OR INACTIVE (OBS2BAS7SE)

 INTERPOLATION FOR HEAD OBS# 1337, ID 2852-71-56   CHANGED BECAUSE AT LEAST ONE
 NEIGHBORING CELL REQUIRED FOR INTERPOLATION IS DRY OR INACTIVE (OBS2BAS7SE)

 INTERPOLATION FOR HEAD OBS# 2185, ID 2355-71-47   CHANGED BECAUSE AT LEAST ONE
 NEIGHBORING CELL REQUIRED FOR INTERPOLATION IS DRY OR INACTIVE (OBS2BAS7SE)

 INTERPOLATION FOR HEAD OBS# 3203, ID 2443-71-42   CHANGED BECAUSE AT LEAST ONE
 NEIGHBORING CELL REQUIRED FOR INTERPOLATION IS DRY OR INACTIVE (OBS2BAS7SE)

 INTERPOLATION FOR HEAD OBS# 3615, ID 1370-71-50   CHANGED BECAUSE AT LEAST ONE
 NEIGHBORING CELL REQUIRED FOR INTERPOLATION IS DRY OR INACTIVE (OBS2BAS7SE)

 INTERPOLATION FOR HEAD OBS# 7740, ID 92-71-40     CHANGED BECAUSE AT LEAST ONE
 NEIGHBORING CELL REQUIRED FOR INTERPOLATION IS DRY OR INACTIVE (OBS2BAS7SE)
 
 SOLVING FOR HEAD 
                                                   Max.-Head-Change                         Max.-Flux-Residual
  Residual-Control   Outer-Iter.   Inner-Iter.     Column Row Layer    Maximum-Head-Change  Column Row Layer    Maximum-Flux-Residual          L2-NORM 
          0                 1          11            29   52     2      -0.1148862349E+02      29   52    2        -0.4135860957E+06      0.1243902969E+07
          0                 2          10            29   52     2       0.9459642884E+00      29   52    2         0.3740180399E+05      0.1223877040E+06
          0                 3           6            33   68     2      -0.2482481690E-02      31   34    2        -0.1047125126E+03      0.1587800739E+03

    ------------------------------------------------
       NWT REQUIRED            3 OUTER ITERATIONS 
       AND A TOTAL OF         27 INNER ITERATIONS.
    ------------------------------------------------

 NO OUTPUT CONTROL FOR STRESS PERIOD   71   TIME STEP    2

 INTERPOLATION FOR HEAD OBS# 1407, ID 2827-71-61   CHANGED BECAUSE AT LEAST ONE
 NEIGHBORING CELL REQUIRED FOR INTERPOLATION IS DRY OR INACTIVE (OBS2BAS7SE)

 INTERPOLATION FOR HEAD OBS# 3704, ID 1479-71-70   CHANGED BECAUSE AT LEAST ONE
 NEIGHBORING CELL REQUIRED FOR INTERPOLATION IS DRY OR INACTIVE (OBS2BAS7SE)

 INTERPOLATION FOR HEAD OBS# 3717, ID 1471-71-70   CHANGED BECAUSE AT LEAST ONE
 NEIGHBORING CELL REQUIRED FOR INTERPOLATION IS DRY OR INACTIVE (OBS2BAS7SE)

 INTERPOLATION FOR HEAD OBS# 6255, ID 1067-71-63   CHANGED BECAUSE AT LEAST ONE
 NEIGHBORING CELL REQUIRED FOR INTERPOLATION IS DRY OR INACTIVE (OBS2BAS7SE)

 INTERPOLATION FOR HEAD OBS# 6256, ID 1066-71-63   CHANGED BECAUSE AT LEAST ONE
 NEIGHBORING CELL REQUIRED FOR INTERPOLATION IS DRY OR INACTIVE (OBS2BAS7SE)

 INTERPOLATION FOR HEAD OBS# 7385, ID 425-71-61    CHANGED BECAUSE AT LEAST ONE
 NEIGHBORING CELL REQUIRED FOR INTERPOLATION IS DRY OR INACTIVE (OBS2BAS7SE)
 
 SOLVING FOR HEAD 
                                                   Max.-Head-Change                         Max.-Flux-Residual
  Residual-Control   Outer-Iter.   Inner-Iter.     Column Row Layer    Maximum-Head-Change  Column Row Layer    Maximum-Flux-Residual          L2-NORM 
          0                 1          11            32   61     1       0.7827981138E+01      29   52    2        -0.2418691463E+06      0.9828020996E+06
          0                 2          10            32   61     1      -0.7310783736E+00      32   61    1        -0.2316876992E+05      0.9941663489E+05
          0                 3           6            23   49     3      -0.5432107749E-02      23   25    2        -0.5372592864E+03      0.6762402152E+03

    ------------------------------------------------
       NWT REQUIRED            3 OUTER ITERATIONS 
       AND A TOTAL OF         27 INNER ITERATIONS.
    ------------------------------------------------

 NO OUTPUT CONTROL FOR STRESS PERIOD   71   TIME STEP    3
 
 SOLVING FOR HEAD 
                                                   Max.-Head-Change                         Max.-Flux-Residual
  Residual-Control   Outer-Iter.   Inner-Iter.     Column Row Layer    Maximum-Head-Change  Column Row Layer    Maximum-Flux-Residual          L2-NORM 
          0                 1          11            32   61     1       0.6892611902E+01      32   61    1         0.1951721566E+06      0.8561177387E+06
          0                 2          10            31   62     1      -0.2174611612E+01      31   62    1        -0.8883317146E+05      0.1243223803E+06
          0                 3           6            90   67     2      -0.2268413052E-01      32   67    3        -0.3206882752E+03      0.5574734018E+03
          0                 4           3            85   85     2      -0.2633978509E-03      69   97    2        -0.1281623002E+03      0.1283765426E+03

    ------------------------------------------------
       NWT REQUIRED            4 OUTER ITERATIONS 
       AND A TOTAL OF         30 INNER ITERATIONS.
    ------------------------------------------------

 NO OUTPUT CONTROL FOR STRESS PERIOD   71   TIME STEP    4
 
 SOLVING FOR HEAD 
                                                   Max.-Head-Change                         Max.-Flux-Residual
  Residual-Control   Outer-Iter.   Inner-Iter.     Column Row Layer    Maximum-Head-Change  Column Row Layer    Maximum-Flux-Residual          L2-NORM 
          0                 1          11            32   61     1       0.6078725021E+01      32   61    1         0.1719047482E+06      0.7770871468E+06
          0                 2          10            32   61     1      -0.5613259671E+00      32   61    1        -0.1760212326E+05      0.7841131488E+05
          0                 3           6            65   29     2       0.3598311098E-01      44   31    1         0.4345403231E+03      0.7261398624E+03
          0                 4           3            85   85     2      -0.2602635003E-03      69   97    2        -0.2459825605E+03      0.2459921593E+03

    ------------------------------------------------
       NWT REQUIRED            4 OUTER ITERATIONS 
       AND A TOTAL OF         30 INNER ITERATIONS.
    ------------------------------------------------

 NO OUTPUT CONTROL FOR STRESS PERIOD   71   TIME STEP    5
 
 SOLVING FOR HEAD 
                                                   Max.-Head-Change                         Max.-Flux-Residual
  Residual-Control   Outer-Iter.   Inner-Iter.     Column Row Layer    Maximum-Head-Change  Column Row Layer    Maximum-Flux-Residual          L2-NORM 
          0                 1          11            32   61     1       0.5381506102E+01      32   61    1         0.1517509093E+06      0.7228371454E+06
          0                 2          10            32   62     1      -0.2266591166E+01      32   62    1        -0.9780649408E+05      0.1465760339E+06
          0                 3           7            32   61     2      -0.2130031415E+00      32   61    2        -0.7636372468E+04      0.8167315177E+04
          0                 4           3            69   97     2       0.1168891080E-02      69   97    2         0.3643152980E+02      0.4948387244E+02

    ------------------------------------------------
       NWT REQUIRED            4 OUTER ITERATIONS 
       AND A TOTAL OF         31 INNER ITERATIONS.
    ------------------------------------------------

 NO OUTPUT CONTROL FOR STRESS PERIOD   71   TIME STEP    6
 
 SOLVING FOR HEAD 
                                                   Max.-Head-Change                         Max.-Flux-Residual
  Residual-Control   Outer-Iter.   Inner-Iter.     Column Row Layer    Maximum-Head-Change  Column Row Layer    Maximum-Flux-Residual          L2-NORM 
          0                 1          11            32   61     2       0.6131130386E+01      32   61    1         0.1581952746E+06      0.6830860447E+06
          0                 2          10            32   61     2      -0.5636595610E+00      32   61    1        -0.1653321053E+05      0.6855341087E+05
          0                 3           6            67   52     2      -0.4268998811E-02      67   52    2        -0.1656430889E+03      0.1931285883E+03

    ------------------------------------------------
       NWT REQUIRED            3 OUTER ITERATIONS 
       AND A TOTAL OF         27 INNER ITERATIONS.
    ------------------------------------------------

 NO OUTPUT CONTROL FOR STRESS PERIOD   71   TIME STEP    7
 
 SOLVING FOR HEAD 
                                                   Max.-Head-Change                         Max.-Flux-Residual
  Residual-Control   Outer-Iter.   Inner-Iter.     Column Row Layer    Maximum-Head-Change  Column Row Layer    Maximum-Flux-Residual          L2-NORM 
          0                 1          11            32   61     1       0.4894458464E+01      32   61    1         0.1471029646E+06      0.6556849568E+06
          0                 2          10            32   61     1      -0.4518657322E+00      32   61    1        -0.1507839232E+05      0.6603521596E+05
          0                 3           5            85   85     2      -0.1705674756E-02      58  118    1         0.1332271737E+02      0.5745160080E+02

    ------------------------------------------------
       NWT REQUIRED            3 OUTER ITERATIONS 
       AND A TOTAL OF         26 INNER ITERATIONS.
    ------------------------------------------------

 NO OUTPUT CONTROL FOR STRESS PERIOD   71   TIME STEP    8
 
 SOLVING FOR HEAD 
                                                   Max.-Head-Change                         Max.-Flux-Residual
  Residual-Control   Outer-Iter.   Inner-Iter.     Column Row Layer    Maximum-Head-Change  Column Row Layer    Maximum-Flux-Residual          L2-NORM 
          0                 1          11            32   61     1       0.4150421833E+01      32   61    1         0.1222051285E+06      0.6291287406E+06
          0                 2          10            32   61     1      -0.3807715012E+00      26   59    2        -0.1804224194E+05      0.6648747495E+05
          0                 3           6            40   62     3       0.2329372660E-01      40   62    3         0.7350074254E+03      0.7386536447E+03
          0                 4           4            40   62     3       0.2096506518E-02      40   62    3         0.6614502473E+02      0.6619704802E+02

    ------------------------------------------------
       NWT REQUIRED            4 OUTER ITERATIONS 
       AND A TOTAL OF         31 INNER ITERATIONS.
    ------------------------------------------------

 NO OUTPUT CONTROL FOR STRESS PERIOD   71   TIME STEP    9
 
 SOLVING FOR HEAD 
                                                   Max.-Head-Change                         Max.-Flux-Residual
  Residual-Control   Outer-Iter.   Inner-Iter.     Column Row Layer    Maximum-Head-Change  Column Row Layer    Maximum-Flux-Residual          L2-NORM 
          0                 1          11            33   61     1       0.3713397474E+01      32   61    1         0.1036979895E+06      0.6076476888E+06
          0                 2          10            31   61     2       0.9108630831E+00      31   61    2         0.3330438554E+05      0.7055361737E+05
          0                 3           7            31   61     2      -0.8287509942E-01      31   61    2        -0.3040892263E+04      0.3335820585E+04
          0                 4           2            85   85     2      -0.2527048639E-03      84   52    1         0.2601180198E+00      0.4356103853E+00

    ------------------------------------------------
       NWT REQUIRED            4 OUTER ITERATIONS 
       AND A TOTAL OF         30 INNER ITERATIONS.
    ------------------------------------------------

 NO OUTPUT CONTROL FOR STRESS PERIOD   71   TIME STEP   10
 
 SOLVING FOR HEAD 
                                                   Max.-Head-Change                         Max.-Flux-Residual
  Residual-Control   Outer-Iter.   Inner-Iter.     Column Row Layer    Maximum-Head-Change  Column Row Layer    Maximum-Flux-Residual          L2-NORM 
          0                 1          11            31   61     2       0.4634331317E+01      32   61    1         0.9174970766E+05      0.5906105864E+06
          0                 2          10            31   61     2      -0.4221244600E+00      31   61    1        -0.9224780703E+04      0.5914762985E+05
          0                 3           6            29   65     2      -0.3678808556E-01      29   65    2        -0.8069886543E+02      0.1237800624E+03
          0                 4           3            29   65     2      -0.4643112477E-03      29   65    2        -0.1018962984E+01      0.1069062041E+01

    ------------------------------------------------
       NWT REQUIRED            4 OUTER ITERATIONS 
       AND A TOTAL OF         30 INNER ITERATIONS.
    ------------------------------------------------

 NO OUTPUT CONTROL FOR STRESS PERIOD   71   TIME STEP   11

 INTERPOLATION FOR HEAD OBS# 2186, ID 2355-71-350  CHANGED BECAUSE AT LEAST ONE
 NEIGHBORING CELL REQUIRED FOR INTERPOLATION IS DRY OR INACTIVE (OBS2BAS7SE)

 INTERPOLATION FOR HEAD OBS# 3616, ID 1370-71-365  CHANGED BECAUSE AT LEAST ONE
 NEIGHBORING CELL REQUIRED FOR INTERPOLATION IS DRY OR INACTIVE (OBS2BAS7SE)

 INTERPOLATION FOR HEAD OBS# 3705, ID 1479-71-365  CHANGED BECAUSE AT LEAST ONE
 NEIGHBORING CELL REQUIRED FOR INTERPOLATION IS DRY OR INACTIVE (OBS2BAS7SE)

 INTERPOLATION FOR HEAD OBS# 3718, ID 1471-71-365  CHANGED BECAUSE AT LEAST ONE
 NEIGHBORING CELL REQUIRED FOR INTERPOLATION IS DRY OR INACTIVE (OBS2BAS7SE)

 INTERPOLATION FOR HEAD OBS# 3778, ID 1405-71-365  CHANGED BECAUSE AT LEAST ONE
 NEIGHBORING CELL REQUIRED FOR INTERPOLATION IS DRY OR INACTIVE (OBS2BAS7SE)

 INTERPOLATION FOR HEAD OBS# 5436, ID 846-71-365   CHANGED BECAUSE AT LEAST ONE
 NEIGHBORING CELL REQUIRED FOR INTERPOLATION IS DRY OR INACTIVE (OBS2BAS7SE)

 INTERPOLATION FOR HEAD OBS# 7383, ID 451-71-336   CHANGED BECAUSE AT LEAST ONE
 NEIGHBORING CELL REQUIRED FOR INTERPOLATION IS DRY OR INACTIVE (OBS2BAS7SE)
 
 SOLVING FOR HEAD 
                                                   Max.-Head-Change                         Max.-Flux-Residual
  Residual-Control   Outer-Iter.   Inner-Iter.     Column Row Layer    Maximum-Head-Change  Column Row Layer    Maximum-Flux-Residual          L2-NORM 
          0                 1          11            31   61     1       0.3312164916E+01      31   61    1         0.9568649256E+05      0.5790283654E+06
          0                 2          10            31   60     1      -0.1737573940E+01      31   60    1        -0.7709871453E+05      0.9969901215E+05
          0                 3           6            27   62     1      -0.3681475494E-01      32   70    3        -0.3484874768E+03      0.5366646907E+03
          0                 4           3            85   85     2      -0.2511019158E-03      31   59    1         0.3543843769E+01      0.5329601334E+01

    ------------------------------------------------
       NWT REQUIRED            4 OUTER ITERATIONS 
       AND A TOTAL OF         30 INNER ITERATIONS.
    ------------------------------------------------

 OUTPUT CONTROL FOR STRESS PERIOD   71   TIME STEP   12
    SAVE BUDGET
    SAVE HEAD FOR LAYERS:   1  2  3
 UBDSV1 SAVING "         STORAGE" ON UNIT  39 AT TIME STEP 12, STRESS PERIOD  71
 UBDSV2 SAVING "   CONSTANT HEAD" ON UNIT  39 AT TIME STEP 12, STRESS PERIOD  71
 UBDSV1 SAVING "FLOW RIGHT FACE " ON UNIT  39 AT TIME STEP 12, STRESS PERIOD  71
 UBDSV1 SAVING "FLOW FRONT FACE " ON UNIT  39 AT TIME STEP 12, STRESS PERIOD  71
 UBDSV1 SAVING "FLOW LOWER FACE " ON UNIT  39 AT TIME STEP 12, STRESS PERIOD  71
 UBDSV4 SAVING "           WELLS" ON UNIT  39 AT TIME STEP 12, STRESS PERIOD  71
 UBDSV3 SAVING "              ET" ON UNIT  39 AT TIME STEP 12, STRESS PERIOD  71
 UBDSV3 SAVING "        RECHARGE" ON UNIT  39 AT TIME STEP 12, STRESS PERIOD  71

 HEAD WILL BE SAVED ON UNIT   31 AT END OF TIME STEP   12, STRESS PERIOD   71
1
  VOLUMETRIC BUDGET FOR ENTIRE MODEL AT END OF TIME STEP   12, STRESS PERIOD  71
  ------------------------------------------------------------------------------

     CUMULATIVE VOLUMES      L**3       RATES FOR THIS TIME STEP      L**3/T
     ------------------                 ------------------------

           IN:                                      IN:
           ---                                      ---
             STORAGE =447510675456.0000               STORAGE =     7854679.0000
       CONSTANT HEAD = 49716314112.0000         CONSTANT HEAD =     2612156.7500
               WELLS = 31771863040.0000                 WELLS =     1192222.0000
                  ET =           0.0000                    ET =           0.0000
            RECHARGE =576598769664.0000              RECHARGE =    39439160.0000

            TOTAL IN =       1.1056E+12              TOTAL IN =    51098220.0000

          OUT:                                     OUT:
          ----                                     ----
             STORAGE =133478416384.0000               STORAGE =    15086554.0000
       CONSTANT HEAD = 75082670080.0000         CONSTANT HEAD =     2018004.1250
               WELLS =872827387904.0000                 WELLS =    33579860.0000
                  ET = 24207579136.0000                    ET =      413801.1875
            RECHARGE =           0.0000              RECHARGE =           0.0000

           TOTAL OUT =       1.1056E+12             TOTAL OUT =    51098216.0000

            IN - OUT =     1572864.0000              IN - OUT =           4.0000

 PERCENT DISCREPANCY =           0.00     PERCENT DISCREPANCY =           0.00






         TIME SUMMARY AT END OF TIME STEP   12 IN STRESS PERIOD   71
                    SECONDS     MINUTES      HOURS       DAYS        YEARS
                    -----------------------------------------------------------
   TIME STEP LENGTH 2.62800E+06  43800.      730.00      30.417     8.32763E-02
 STRESS PERIOD TIME 3.15360E+07 5.25600E+05  8760.0      365.00     0.99932    
         TOTAL TIME 2.24060E+09 3.73434E+07 6.22390E+05  25933.      71.000    
1

 HEAD AND DRAWDOWN OBSERVATIONS
 OBSERVATION       OBSERVED           SIMULATED
   NAME              VALUE              VALUE             DIFFERENCE
 --------------------------------------------------------------------
 3522-15-337     2965.0000000        2949.3215332        15.678466797    
 3489-20-74      2968.0000000        2944.7141113        23.285888672    
 3485-19-34      2966.0000000        2942.2075195        23.792480469    
 3465-20-300     2968.0000000        2932.3415527        35.658447266    
 3415-15-154     2955.0000000        2903.3366699        51.663330078    
 3314-43-7       2830.0000000        2799.3369141        30.663085938    
 3241-5-82       2709.0000000        2709.7756348      -0.77563476562    
 3384-7-41       1626.0000000        1641.2976074       -15.297607422    
 3384-12-10      1613.0000000        1620.9539795       -7.9539794922    
 3384-16-340     1572.0000000        1588.8853760       -16.885375977    
 3384-21-335     1549.0000000        1559.7045898       -10.704589844    
 3384-27-13      1531.0000000        1540.3894043       -9.3894042969    
 3384-32-5       1517.0000000        1525.1368408       -8.1368408203    
 3384-36-349     1499.0000000        1506.8959961       -7.8959960938    
 3400-55-321     1558.0000000        1591.5749512       -33.574951172    
 3400-60-312     1568.0000000        1595.4096680       -27.409667969    
 3400-65-363     1583.0000000        1603.9797363       -20.979736328    
 3400-71-349     1600.0000000        1614.9215088       -14.921508789    
 3401-55-321     1613.0000000        1589.5802002        23.419799805    
 3401-60-312     1621.0000000        1592.0852051        28.914794922    
 3401-65-363     1631.0000000        1598.9389648        32.061035156    
 3401-71-349     1650.0000000        1610.2308350        39.769165039    
 3397-11-313     1674.0000000        1687.0147705       -13.014770508    
 3361-21-339     1555.0000000        1559.3497314       -4.3497314453    
 3361-32-5       1524.0000000        1524.8640137      -0.86401367188    
 3346-16-340     1573.0000000        1588.4223633       -15.422363281    
 3346-21-339     1537.0000000        1558.5993652       -21.599365234    
 3346-32-5       1495.0000000        1520.6811523       -25.681152344    
 3346-37-349     1474.0000000        1502.6142578       -28.614257812    
 3346-49-54      1506.0000000        1522.6295166       -16.629516602    
 3346-60-319     1517.0000000        1540.1247559       -23.124755859    
 3346-65-298     1529.0000000        1558.8444824       -29.844482422    
 3346-71-13      1544.0000000        1568.3208008       -24.320800781    
 3376-6-41       1665.0000000        1675.4825439       -10.482543945    
 3376-12-46      1648.0000000        1657.8175049       -9.8175048828    
 3376-16-362     1635.0000000        1632.3616943        2.6383056641    
 3376-21-336     1591.0000000        1606.3508301       -15.350830078    
 3376-27-12      1561.0000000        1584.6361084       -23.636108398    
 3376-38-1       1527.0000000        1550.2856445       -23.285644531    
 3327-56-26      1579.0000000        1577.1958008        1.8041992188    
 3327-66-18      1601.0000000        1600.2611084       0.73889160156    
 3306-1-32       1688.0000000        1693.2579346       -5.2579345703    
 3299-38-41      1546.0000000        1574.1899414       -28.189941406    
 3311-15-337     2982.0000000        2930.3012695        51.698730469    
 3313-32-7       1579.0000000        1607.3438721       -28.343872070    
 3313-38-1       1560.0000000        1590.5090332       -30.509033203    
 3313-56-26      1601.0000000        1594.7490234        6.2509765625    
 3313-66-18      1626.0000000        1614.3526611        11.647338867    
 3303-56-26      1600.0000000        1592.1032715        7.8967285156    
 3303-66-18      1624.0000000        1614.6600342        9.3399658203    
 3302-12-32      1680.0000000        1691.5726318       -11.572631836    
 3302-56-26      1606.0000000        1600.6850586        5.3149414062    
 3302-66-18      1633.0000000        1619.6927490        13.307250977    
 3320-2-305      1680.0000000        1682.5045166       -2.5045166016    
 3324-26-339     1550.0000000        1568.6768799       -18.676879883    
 3312-16-335     1604.0000000        1624.8020020       -20.802001953    
 3312-21-335     1576.0000000        1596.4523926       -20.452392578    
 3312-32-1       1537.0000000        1555.9312744       -18.931274414    
 3312-36-51      1523.0000000        1542.5471191       -19.547119141    
 3294-1-60       1692.0000000        1694.9501953       -2.9501953125    
 3291-16-362     1650.0000000        1655.2602539       -5.2602539062    
 3288-12-32      1671.0000000        1667.4621582        3.5378417969    
 3288-21-335     1622.0000000        1619.1906738        2.8093261719    
 3288-32-7       1602.0000000        1582.6738281        19.326171875    
 3282-21-336     1628.0000000        1639.2757568       -11.275756836    
 3282-32-7       1604.0000000        1603.4406738       0.55932617188    
 3282-38-10      1584.0000000        1588.4282227       -4.4282226562    
 3285-5-179      1699.0000000        1713.2574463       -14.257446289    
 3285-11-25      1690.0000000        1704.9803467       -14.980346680    
 3285-16-341     1666.0000000        1686.2358398       -20.235839844    
 3285-21-336     1639.0000000        1660.2933350       -21.293334961    
 3279-12-39      1679.0000000        1703.1932373       -24.193237305    
 3279-16-362     1650.0000000        1688.0998535       -38.099853516    
 3279-21-341     1639.0000000        1662.1505127       -23.150512695    
 3279-27-28      1624.0000000        1644.8012695       -20.801269531    
 3281-21-336     1635.0000000        1661.5532227       -26.553222656    
 3281-37-350     1573.0000000        1610.7458496       -37.745849609    
 3268-21-274     1652.0000000        1676.2761230       -24.276123047    
 3268-38-6       1576.0000000        1626.6739502       -50.673950195    
 3259-16-348     1684.0000000        1708.1448975       -24.144897461    
 3259-32-7       1619.0000000        1648.2313232       -29.231323242    
 3259-36-350     1606.0000000        1634.8125000       -28.812500000    
 3237-1-365      1723.0000000        1739.6040039       -16.604003906    
 3237-3-355      1721.0000000        1737.1040039       -16.104003906    
 3237-12-59      1713.0000000        1728.3796387       -15.379638672    
 3237-12-59      1713.0000000        1728.3796387       -15.379638672    
 3234-6-284      1719.0000000        1737.3312988       -18.331298828    
 3234-12-32      1710.0000000        1728.6500244       -18.650024414    
 3234-16-348     1689.0000000        1716.3160400       -27.316040039    
 3231-21-341     1661.0000000        1689.2518311       -28.251831055    
 3231-27-12      1642.0000000        1672.3643799       -30.364379883    
 3231-38-3       1595.0000000        1638.4827881       -43.482788086    
 3382-48-363     1604.0000000        1600.1585693        3.8414306641    
 3383-48-363     1619.0000000        1600.1585693        18.841430664    
 3363-56-23      1632.0000000        1609.4866943        22.513305664    
 3363-66-18      1646.0000000        1617.9499512        28.050048828    
 3364-11-342     1694.0000000        1701.5759277       -7.5759277344    
 3364-16-362     1671.0000000        1686.6582031       -15.658203125    
 3364-21-341     1646.0000000        1669.7032471       -23.703247070    
 3364-27-28      1639.0000000        1650.1868896       -11.186889648    
 3364-32-4       1621.0000000        1634.2338867       -13.233886719    
 3364-36-349     1617.0000000        1619.4576416       -2.4576416016    
 3364-43-19      1616.0000000        1605.9105225        10.089477539    
 3364-49-54      1622.0000000        1599.5932617        22.406738281    
 3364-56-25      1626.0000000        1605.7453613        20.254638672    
 3364-60-319     1628.0000000        1608.2884521        19.711547852    
 3364-65-298     1635.0000000        1614.4371338        20.562866211    
 3364-71-13      1648.0000000        1624.2814941        23.718505859    
 3364-71-365     1652.0000000        1625.9739990        26.026000977    
 3370-56-25      1623.0000000        1600.9833984        22.016601562    
 3370-61-72      1628.0000000        1604.2880859        23.711914062    
 3370-66-18      1637.0000000        1610.6718750        26.328125000    
 3353-21-335     1659.0000000        1670.7613525       -11.761352539    
 3353-27-12      1646.0000000        1651.4471436       -5.4471435547    
 3353-56-25      1627.0000000        1607.7786865        19.221313477    
 3353-66-18      1635.0000000        1617.3817139        17.618286133    
 3351-56-25      1628.0000000        1609.0449219        18.955078125    
 3351-61-72      1629.0000000        1611.9127197        17.087280273    
 3351-66-18      1639.0000000        1618.2718506        20.728149414    
 3310-56-23      1643.0000000        1635.9643555        7.0356445312    
 3307-56-23      1644.0000000        1639.1972656        4.8027343750    
 3307-61-73      1649.0000000        1638.1529541        10.847045898    
 3307-66-20      1676.0000000        1645.1215820        30.878417969    
 3292-56-25      1630.0000000        1624.8702393        5.1297607422    
 3292-61-73      1638.0000000        1627.4995117        10.500488281    
 3292-66-19      1663.0000000        1636.9890137        26.010986328    
 3278-11-296     1706.0000000        1722.4981689       -16.498168945    
 3278-16-343     1693.0000000        1707.9057617       -14.905761719    
 3278-21-340     1664.0000000        1684.8925781       -20.892578125    
 3278-27-12      1658.0000000        1667.3620605       -9.3620605469    
 3278-32-4       1650.0000000        1650.8959961      -0.89599609375    
 3278-36-350     1648.0000000        1636.1893311        11.810668945    
 3278-43-19      1650.0000000        1627.3980713        22.601928711    
 3278-49-54      1656.0000000        1630.3835449        25.616455078    
 3278-56-25      1656.0000000        1636.5507812        19.449218750    
 3278-60-319     1660.0000000        1637.4804688        22.519531250    
 3278-65-301     1670.0000000        1644.9448242        25.055175781    
 3278-71-13      1684.0000000        1655.7827148        28.217285156    
 3278-71-365     1686.0000000        1657.3907471        28.609252930    
 3290-56-25      1638.0000000        1633.3604736        4.6395263672    
 3290-61-73      1647.0000000        1634.9018555        12.098144531    
 3290-66-19      1671.0000000        1642.4960938        28.503906250    
 3250-12-32      1737.0000000        1746.0118408       -9.0118408203    
 3250-16-363     1711.0000000        1730.6113281       -19.611328125    
 3250-21-335     1688.0000000        1708.5079346       -20.507934570    
 3250-32-7       1652.0000000        1674.8980713       -22.898071289    
 3250-36-352     1632.0000000        1659.1422119       -27.142211914    
 3308-56-25      1672.0000000        1665.3312988        6.6687011719    
 3308-61-73      1673.0000000        1664.8641357        8.1358642578    
 3308-66-20      1698.0000000        1669.8967285        28.103271484    
 3249-16-363     1709.0000000        1729.5849609       -20.584960938    
 3249-21-340     1688.0000000        1707.1398926       -19.139892578    
 3249-36-352     1660.0000000        1657.9909668        2.0090332031    
 3249-56-25      1688.0000000        1664.2633057        23.736694336    
 3249-61-73      1698.0000000        1663.6728516        34.327148438    
 3233-3-355      1744.0000000        1760.6469727       -16.646972656    
 3233-6-341      1743.0000000        1760.2553711       -17.255371094    
 3233-12-59      1737.0000000        1749.8701172       -12.870117188    
 3233-16-311     1725.0000000        1733.9216309       -8.9216308594    
 3230-16-348     1722.0000000        1734.8984375       -12.898437500    
 3230-21-340     1705.0000000        1713.2310791       -8.2310791016    
 3230-27-1       1694.0000000        1696.1879883       -2.1879882812    
 3230-32-7       1702.0000000        1679.7414551        22.258544922    
 3230-36-352     1682.0000000        1663.5279541        18.472045898    
 3230-56-25      1711.0000000        1673.3952637        37.604736328    
 3230-61-72      1716.0000000        1672.4334717        43.566528320    
 3229-17-4       1729.0000000        1735.7639160       -6.7639160156    
 3247-61-73      1711.0000000        1671.3599854        39.640014648    
 3247-66-20      1715.0000000        1675.5688477        39.431152344    
 3368-56-25      1668.0000000        1664.0413818        3.9586181641    
 3333-12-10      1744.0000000        1756.7802734       -12.780273438    
 3333-16-343     1741.0000000        1751.6607666       -10.660766602    
 3333-32-85      1693.0000000        1712.9687500       -19.968750000    
 3333-35-53      1685.0000000        1704.5056152       -19.505615234    
 3332-49-54      1671.0000000        1672.4669189       -1.4669189453    
 3332-56-26      1674.0000000        1666.7307129        7.2692871094    
 3332-60-319     1679.0000000        1665.7236328        13.276367188    
 3332-65-298     1687.0000000        1665.6365967        21.363403320    
 3332-71-13      1699.0000000        1669.0018311        29.998168945    
 3332-71-365     1701.0000000        1670.0765381        30.923461914    
 3330-56-25      1659.0000000        1663.3151855       -4.3151855469    
 3315-48-300     1659.0000000        1661.4127197       -2.4127197266    
 3315-55-321     1664.0000000        1659.2045898        4.7954101562    
 3315-60-312     1666.0000000        1659.2020264        6.7979736328    
 3315-65-363     1676.0000000        1660.8924561        15.107543945    
 3315-71-351     1691.0000000        1668.5675049        22.432495117    
 3316-48-300     1658.0000000        1661.7467041       -3.7467041016    
 3316-55-321     1663.0000000        1658.9344482        4.0655517578    
 3316-60-312     1666.0000000        1659.3796387        6.6203613281    
 3316-65-363     1677.0000000        1660.3175049        16.682495117    
 3316-71-351     1692.0000000        1667.2165527        24.783447266    
 3284-56-25      1689.0000000        1707.9517822       -18.951782227    
 3275-38-12      1709.0000000        1743.1215820       -34.121582031    
 3287-38-24      1676.0000000        1692.9619141       -16.961914062    
 3265-48-364     1671.0000000        1677.7849121       -6.7849121094    
 3265-56-25      1676.0000000        1683.5968018       -7.5968017578    
 3228-56-20      1682.0000000        1689.2153320       -7.2153320312    
 3228-61-73      1697.0000000        1688.6258545        8.3741455078    
 3228-66-19      1727.0000000        1692.0803223        34.919677734    
 3347-20-74      2968.0000000        2945.2512207        22.748779297    
 3347-26-157     2967.0000000        2957.4423828        9.5576171875    
 3347-37-33      2963.0000000        2957.4423828        5.5576171875    
 3347-43-82      2967.0000000        2962.4296875        4.5703125000    
 3347-48-336     2971.0000000        2965.8977051        5.1022949219    
 3347-56-23      2969.0000000        2966.0112305        2.9887695312    
 3347-61-62      2971.0000000        2963.1542969        7.8457031250    
 3347-65-299     2969.0000000        2965.2419434        3.7580566406    
 3347-71-12      2966.0000000        2962.1948242        3.8051757812    
 3347-71-365     2966.0000000        2960.8767090        5.1232910156    
 3378-15-337     2965.0000000        2959.7863770        5.2136230469    
 3378-26-127     2971.0000000        2978.0502930       -7.0502929688    
 3378-33-312     2954.0000000        2965.5478516       -11.547851562    
 3378-43-82      2971.0000000        2985.0900879       -14.090087891    
 3378-48-337     2976.0000000        2975.8510742       0.14892578125    
 3378-56-23      2976.0000000        2976.5541992      -0.55419921875    
 3378-61-62      2976.0000000        2983.3134766       -7.3134765625    
 3378-66-18      2972.0000000        2978.3444824       -6.3444824219    
 3336-71-63      2981.0000000        2963.4194336        17.580566406    
 3343-19-34      2966.0000000        2942.2412109        23.758789062    
 3343-26-121     2966.0000000        2950.7431641        15.256835938    
 3343-33-311     2952.0000000        2955.1804199       -3.1804199219    
 3343-43-82      2975.0000000        2958.3305664        16.669433594    
 3343-48-336     2978.0000000        2962.6704102        15.329589844    
 3343-56-25      2977.0000000        2962.0229492        14.977050781    
 3343-61-62      2975.0000000        2958.7810059        16.218994141    
 3343-66-24      2971.0000000        2959.3310547        11.668945312    
 3343-71-63      2963.0000000        2955.5781250        7.4218750000    
 3322-20-300     2968.0000000        2934.9943848        33.005615234    
 3322-26-127     2967.0000000        2942.3271484        24.672851562    
 3322-48-337     2973.0000000        2952.5793457        20.420654297    
 3322-56-25      2963.0000000        2951.0725098        11.927490234    
 3322-61-60      2964.0000000        2946.7846680        17.215332031    
 3317-43-85      2959.0000000        2947.6650391        11.334960938    
 3317-56-25      2964.0000000        2949.2683105        14.731689453    
 3317-61-60      2961.0000000        2944.9360352        16.063964844    
 3317-66-27      2959.0000000        2945.9912109        13.008789062    
 3317-71-64      2962.0000000        2944.1857910        17.814208984    
 3300-56-26      2995.0000000        2964.6235352        30.376464844    
 3289-56-26      3009.0000000        2943.3054199        65.694580078    
 3289-61-65      2998.0000000        2924.2104492        73.789550781    
 3276-56-26      3018.0000000        2937.1386719        80.861328125    
 3270-56-26      2964.0000000        2974.5246582       -10.524658203    
 3272-15-154     2955.0000000        2902.3615723        52.638427734    
 3272-26-125     2957.0000000        2915.8098145        41.190185547    
 3272-37-36      2947.0000000        2921.6462402        25.353759766    
 3272-43-27      2962.0000000        2925.3156738        36.684326172    
 3272-48-336     2970.0000000        2929.0039062        40.996093750    
 3272-56-26      2966.0000000        2925.3862305        40.613769531    
 3272-61-60      2962.0000000        2919.0737305        42.926269531    
 3272-71-12      2947.0000000        2920.3166504        26.683349609    
 3266-56-26      2956.0000000        2909.4885254        46.511474609    
 3260-33-313     3027.0000000        2991.7116699        35.288330078    
 3260-48-334     3050.0000000        3000.5407715        49.459228516    
 3260-56-26      3044.0000000        2996.4338379        47.566162109    
 3222-38-6       1714.0000000        1664.0909424        49.909057617    
 3213-12-324     1725.0000000        1746.3840332       -21.384033203    
 3213-16-335     1716.0000000        1734.3449707       -18.344970703    
 3213-21-335     1699.0000000        1709.1875000       -10.187500000    
 3213-32-7       1680.0000000        1675.4663086        4.5336914062    
 3213-38-10      1660.0000000        1658.5979004        1.4020996094    
 3213-56-19      1689.0000000        1669.9196777        19.080322266    
 3205-2-230      1730.0000000        1754.0404053       -24.040405273    
 3205-22-37      1683.0000000        1703.2708740       -20.270874023    
 3191-2-188      1745.0000000        1758.6633301       -13.663330078    
 3178-17-4       1713.0000000        1737.4123535       -24.412353516    
 3178-22-37      1688.0000000        1710.8237305       -22.823730469    
 3178-32-85      1649.0000000        1676.5053711       -27.505371094    
 3178-36-65      1610.0000000        1665.0666504       -55.066650391    
 3178-42-349     1623.0000000        1658.7325439       -35.732543945    
 3178-48-341     1643.0000000        1664.8199463       -21.819946289    
 3178-56-23      1655.0000000        1672.0260010       -17.026000977    
 3178-60-319     1671.0000000        1672.0856934       -1.0856933594    
 3177-17-4       1713.0000000        1740.0489502       -27.048950195    
 3176-11-297     1743.0000000        1756.6287842       -13.628784180    
 3176-16-342     1718.0000000        1741.0604248       -23.060424805    
 3176-21-342     1691.0000000        1715.8291016       -24.829101562    
 3176-32-7       1633.0000000        1679.7453613       -46.745361328    
 3176-34-339     1628.0000000        1670.4525146       -42.452514648    
 3174-21-335     1695.0000000        1719.6202393       -24.620239258    
 3174-56-19      1680.0000000        1683.2530518       -3.2530517578    
 3174-61-60      1690.0000000        1681.9416504        8.0583496094    
 3174-66-24      1723.0000000        1686.9559326        36.044067383    
 3188-2-335      1755.0000000        1776.4471436       -21.447143555    
 3188-6-341      1754.0000000        1775.7773438       -21.777343750    
 3188-10-350     1750.0000000        1763.8370361       -13.837036133    
 3199-38-6       1636.0000000        1669.8341064       -33.834106445    
 3199-48-337     1674.0000000        1679.4820557       -5.4820556641    
 3199-61-60      1705.0000000        1689.1701660        15.829833984    
 3175-48-337     1664.0000000        1678.7718506       -14.771850586    
 3175-56-19      1686.0000000        1689.1539307       -3.1539306641    
 3175-66-24      1729.0000000        1692.0010986        36.998901367    
 3196-56-19      1688.0000000        1691.6593018       -3.6593017578    
 3171-21-335     1716.0000000        1727.2735596       -11.273559570    
 3171-26-313     1672.0000000        1707.9451904       -35.945190430    
 3171-48-337     1698.0000000        1682.2347412        15.765258789    
 3173-48-337     1672.0000000        1681.8751221       -9.8751220703    
 3173-56-19      1692.0000000        1693.5654297       -1.5654296875    
 3173-61-60      1701.0000000        1691.6981201        9.3018798828    
 3173-66-20      1730.0000000        1695.5340576        34.465942383    
 3172-56-19      1682.0000000        1686.9951172       -4.9951171875    
 3172-61-60      1691.0000000        1685.5948486        5.4051513672    
 3172-66-24      1723.0000000        1690.3718262        32.628173828    
 3163-12-91      1748.0000000        1765.3078613       -17.307861328    
 3163-21-335     1701.0000000        1725.5319824       -24.531982422    
 3197-42-351     1684.0000000        1663.1275635        20.872436523    
 3197-48-348     1700.0000000        1669.3260498        30.673950195    
 3197-56-4       1699.0000000        1678.4034424        20.596557617    
 3197-61-5       1719.0000000        1677.3586426        41.641357422    
 3197-65-361     1745.0000000        1682.7327881        62.267211914    
 3197-71-355     1748.0000000        1699.0354004        48.964599609    
 3170-16-348     1732.0000000        1745.0853271       -13.085327148    
 3170-21-342     1703.0000000        1721.2581787       -18.258178711    
 3170-38-6       1681.0000000        1669.0927734        11.907226562    
 3170-42-351     1737.0000000        1668.9182129        68.081787109    
 3170-48-348     1694.0000000        1676.4040527        17.595947266    
 3170-55-354     1703.0000000        1686.0075684        16.992431641    
 3170-61-5       1725.0000000        1684.4538574        40.546142578    
 3170-65-361     1751.0000000        1689.6179199        61.382080078    
 3170-71-355     1754.0000000        1706.6273193        47.372680664    
 3139-21-343     1698.0000000        1723.8687744       -25.868774414    
 3139-71-355     1747.0000000        1709.6667480        37.333251953    
 3143-17-5       1732.0000000        1748.1856689       -16.185668945    
 3143-22-37      1708.0000000        1723.8093262       -15.809326172    
 3143-27-31      1695.0000000        1706.5461426       -11.546142578    
 3143-55-354     1694.0000000        1690.7817383        3.2182617188    
 3143-61-5       1720.0000000        1689.3598633        30.640136719    
 3143-65-361     1757.0000000        1695.1502686        61.849731445    
 3143-71-355     1760.0000000        1713.0490723        46.950927734    
 3166-1-1        1748.0000000        1768.6994629       -20.699462891    
 3166-11-335     1738.0000000        1758.4106445       -20.410644531    
 3166-21-335     1680.0000000        1717.9334717       -37.933471680    
 3100-16-338     1730.0000000        1756.7352295       -26.735229492    
 3100-21-335     1703.0000000        1732.5819092       -29.581909180    
 3100-43-60      1625.0000000        1669.1051025       -44.105102539    
 3100-55-354     1652.0000000        1685.1323242       -33.132324219    
 3100-61-5       1659.0000000        1685.9523926       -26.952392578    
 3100-66-20      1692.0000000        1690.6442871        1.3557128906    
 3100-71-355     1709.0000000        1705.6888428        3.3111572266    
 2939-42-351     1635.0000000        1671.0312500       -36.031250000    
 2939-61-5       1669.0000000        1686.9030762       -17.903076172    
 2939-70-352     1725.0000000        1704.9562988        20.043701172    
 2939-71-355     1727.0000000        1707.1778564        19.822143555    
 3099-21-335     1697.0000000        1732.1154785       -35.115478516    
 3099-61-5       1665.0000000        1686.1418457       -21.141845703    
 3099-66-20      1698.0000000        1690.9920654        7.0079345703    
 3099-71-355     1723.0000000        1706.4326172        16.567382812    
 3113-1-59       1773.0000000        1783.3048096       -10.304809570    
 3113-6-341      1768.0000000        1783.0389404       -15.038940430    
 3113-12-362     1752.0000000        1765.1055908       -13.105590820    
 3113-22-37      1703.0000000        1727.3258057       -24.325805664    
 3113-27-31      1697.0000000        1708.6861572       -11.686157227    
 3113-37-341     1653.0000000        1675.6867676       -22.686767578    
 3113-42-349     1684.0000000        1674.4644775        9.5355224609    
 3113-48-341     1664.0000000        1684.7930908       -20.793090820    
 3113-55-354     1694.0000000        1693.2828369       0.71716308594    
 3113-60-319     1716.0000000        1691.8950195        24.104980469    
 3113-65-298     1744.0000000        1698.4149170        45.585083008    
 3113-71-355     1757.0000000        1717.5520020        39.447998047    
 3097-12-170     1744.0000000        1772.8663330       -28.866333008    
 3097-17-5       1723.0000000        1755.9344482       -32.934448242    
 3097-42-351     1664.0000000        1676.5633545       -12.563354492    
 3097-48-348     1679.0000000        1687.4011230       -8.4011230469    
 3097-55-354     1696.0000000        1695.5876465       0.41235351562    
 3097-61-5       1718.0000000        1695.0303955        22.969604492    
 3097-65-361     1750.0000000        1702.1976318        47.802368164    
 3097-71-355     1760.0000000        1721.8359375        38.164062500    
 3095-42-351     1666.0000000        1676.2619629       -10.261962891    
 3095-48-348     1682.0000000        1686.9726562       -4.9726562500    
 3095-55-354     1698.0000000        1695.1754150        2.8245849609    
 3095-61-5       1720.0000000        1694.5715332        25.428466797    
 3095-65-361     1752.0000000        1701.5987549        50.401245117    
 3095-71-355     1761.0000000        1721.0678711        39.932128906    
 3096-8-283      1773.0000000        1786.2662354       -13.266235352    
 3096-17-5       1736.0000000        1758.5065918       -22.506591797    
 3096-21-335     1708.0000000        1732.7216797       -24.721679688    
 3135-8-282      1775.0000000        1785.7979736       -10.797973633    
 3135-11-355     1766.0000000        1775.7636719       -9.7636718750    
 3135-16-349     1739.0000000        1756.9671631       -17.967163086    
 3135-21-312     1708.0000000        1732.1574707       -24.157470703    
 3135-26-292     1680.0000000        1713.4498291       -33.449829102    
 3135-38-5       1641.0000000        1678.2762451       -37.276245117    
 3135-48-337     1678.0000000        1691.0504150       -13.050415039    
 3135-56-19      1700.0000000        1701.7056885       -1.7056884766    
 3135-61-60      1717.0000000        1700.1812744        16.818725586    
 3121-55-354     1713.0000000        1700.5769043        12.423095703    
 3121-61-5       1724.0000000        1698.4708252        25.529174805    
 3121-66-20      1760.0000000        1705.8712158        54.128784180    
 3121-71-365     1772.0000000        1728.1604004        43.839599609    
 3059-10-57      1779.0000000        1796.5454102       -17.545410156    
 3059-17-5       1744.0000000        1770.4199219       -26.419921875    
 3059-27-31      1693.0000000        1724.3642578       -31.364257812    
 3059-37-33      1717.0000000        1691.4018555        25.598144531    
 3059-42-349     1681.0000000        1689.8179932       -8.8179931641    
 3059-48-342     1700.0000000        1702.8048096       -2.8048095703    
 3059-56-20      1720.0000000        1711.6928711        8.3071289062    
 3059-60-319     1742.0000000        1710.9302979        31.069702148    
 3059-65-301     1777.0000000        1723.8588867        53.141113281    
 3059-71-365     1787.0000000        1751.4497070        35.550292969    
 3078-21-335     1709.0000000        1737.0653076       -28.065307617    
 3080-11-297     1762.0000000        1780.8074951       -18.807495117    
 3075-56-20      1716.0000000        1702.9812012        13.018798828    
 3089-2-339      1774.0000000        1786.9012451       -12.901245117    
 3089-6-341      1772.0000000        1786.4377441       -14.437744141    
 3089-12-362     1763.0000000        1771.6101074       -8.6101074219    
 3089-16-313     1745.0000000        1757.1420898       -12.142089844    
 3089-42-351     1693.0000000        1675.4764404        17.523559570    
 3089-65-361     1743.0000000        1699.2672119        43.732788086    
 3089-71-355     1755.0000000        1717.6289062        37.371093750    
 3053-11-297     1767.0000000        1786.4333496       -19.433349609    
 3053-16-349     1741.0000000        1765.0554199       -24.055419922    
 3053-22-37      1710.0000000        1739.5974121       -29.597412109    
 3053-32-85      1668.0000000        1694.9729004       -26.972900391    
 3053-42-351     1660.0000000        1678.7440186       -18.744018555    
 3053-48-348     1676.0000000        1689.4633789       -13.463378906    
 3053-55-353     1689.0000000        1697.7758789       -8.7758789062    
 3053-61-5       1706.0000000        1698.6492920        7.3507080078    
 3053-65-361     1735.0000000        1704.8715820        30.128417969    
 3053-71-355     1752.0000000        1723.6335449        28.366455078    
 3050-55-353     1689.0000000        1697.8903809       -8.8903808594    
 3050-61-5       1706.0000000        1698.7774658        7.2225341797    
 3050-65-361     1735.0000000        1705.0130615        29.986938477    
 3050-71-355     1752.0000000        1723.7667236        28.233276367    
 3076-37-33      1618.0000000        1681.1905518       -63.190551758    
 3076-42-349     1656.0000000        1678.3950195       -22.395019531    
 3076-48-342     1676.0000000        1688.2259521       -12.225952148    
 3076-56-23      1695.0000000        1697.2022705       -2.2022705078    
 3076-61-60      1701.0000000        1697.8648682        3.1351318359    
 3076-66-24      1742.0000000        1704.9133301        37.086669922    
 3077-55-354     1659.0000000        1688.5565186       -29.556518555    
 3077-61-5       1665.0000000        1688.8413086       -23.841308594    
 3077-66-20      1690.0000000        1693.8259277       -3.8259277344    
 3077-71-355     1718.0000000        1708.9645996        9.0354003906    
 3065-48-348     1663.0000000        1680.4632568       -17.463256836    
 3021-1-107      1784.0000000        1799.5197754       -15.519775391    
 3021-7-3        1782.0000000        1798.2781982       -16.278198242    
 3020-7-3        1781.0000000        1798.3529053       -17.352905273    
 3020-12-59      1775.0000000        1791.8122559       -16.812255859    
 3020-16-314     1755.0000000        1772.4168701       -17.416870117    
 3020-22-37      1731.0000000        1746.1115723       -15.111572266    
 3020-27-31      1697.0000000        1722.7036133       -25.703613281    
 2989-12-59      1780.0000000        1797.5148926       -17.514892578    
 2995-16-313     1748.0000000        1777.3920898       -29.392089844    
 2995-22-37      1734.0000000        1748.8768311       -14.876831055    
 2995-27-31      1719.0000000        1727.9414062       -8.9414062500    
 2995-32-85      1723.0000000        1705.6831055        17.316894531    
 3201-48-300     1676.0000000        1705.6557617       -29.655761719    
 3201-55-321     1685.0000000        1712.9912109       -27.991210938    
 3201-60-312     1692.0000000        1713.3811035       -21.381103516    
 3201-65-363     1706.0000000        1722.2934570       -16.293457031    
 3201-71-10      1726.0000000        1742.6367188       -16.636718750    
 3202-48-300     1678.0000000        1700.9584961       -22.958496094    
 3202-55-321     1687.0000000        1708.6763916       -21.676391602    
 3202-60-312     1696.0000000        1709.7031250       -13.703125000    
 3202-65-363     1720.0000000        1716.2720947        3.7279052734    
 3202-71-10      1745.0000000        1735.9223633        9.0776367188    
 3200-21-335     1763.0000000        1784.6884766       -21.688476562    
 3200-32-6       1728.0000000        1753.2735596       -25.273559570    
 3200-36-351     1712.0000000        1740.0079346       -28.007934570    
 3200-49-54      1695.0000000        1731.3308105       -36.330810547    
 3200-56-24      1699.0000000        1735.3438721       -36.343872070    
 3200-60-319     1706.0000000        1737.0599365       -31.059936523    
 3200-65-298     1718.0000000        1746.2291260       -28.229125977    
 3200-71-365     1736.0000000        1771.5385742       -35.538574219    
 3154-1-337      1791.0000000        1800.2901611       -9.2901611328    
 3154-6-286      1782.0000000        1797.1423340       -15.142333984    
 3154-11-298     1778.0000000        1787.9710693       -9.9710693359    
 3154-16-358     1742.0000000        1764.9908447       -22.990844727    
 3154-21-343     1712.0000000        1742.2945557       -30.294555664    
 3154-32-85      1660.0000000        1706.5388184       -46.538818359    
 3154-37-33      1649.0000000        1696.3610840       -47.361083984    
 3154-42-349     1651.0000000        1695.9412842       -44.941284180    
 3150-48-337     1681.0000000        1704.9051514       -23.905151367    
 3150-56-23      1704.0000000        1717.9102783       -13.910278320    
 3150-60-319     1720.0000000        1716.3072510        3.6927490234    
 3150-65-298     1752.0000000        1727.5599365        24.440063477    
 3150-71-11      1775.0000000        1755.6839600        19.316040039    
 3150-71-365     1776.0000000        1758.5408936        17.459106445    
 3158-12-85      1766.0000000        1786.0008545       -20.000854492    
 3158-16-342     1740.0000000        1766.4686279       -26.468627930    
 3158-21-346     1712.0000000        1744.4151611       -32.415161133    
 3158-56-25      1700.0000000        1717.5939941       -17.593994141    
 3158-61-55      1720.0000000        1716.5366211        3.4633789062    
 3158-66-19      1753.0000000        1727.9742432        25.025756836    
 3179-8-1        1777.0000000        1784.5688477       -7.5688476562    
 3151-12-33      1773.0000000        1782.0026855       -9.0026855469    
 3151-16-342     1740.0000000        1760.9171143       -20.917114258    
 3151-21-346     1717.0000000        1735.9627686       -18.962768555    
 3151-56-23      1705.0000000        1713.7196045       -8.7196044922    
 3151-61-55      1725.0000000        1711.6411133        13.358886719    
 3151-66-18      1758.0000000        1721.9114990        36.088500977    
 3167-34-152     1703.0000000        1690.0234375        12.976562500    
 3103-38-3       1652.0000000        1689.4963379       -37.496337891    
 3101-66-24      1760.0000000        1728.1661377        31.833862305    
 3105-8-1        1789.0000000        1802.3206787       -13.320678711    
 3105-56-23      1710.0000000        1721.1330566       -11.133056641    
 3105-61-55      1731.0000000        1720.2088623        10.791137695    
 3105-66-18      1767.0000000        1737.7829590        29.217041016    
 3142-12-1       1778.0000000        1793.6311035       -15.631103516    
 3142-16-342     1744.0000000        1771.8610840       -27.861083984    
 3142-56-24      1707.0000000        1723.3116455       -16.311645508    
 3142-61-55      1726.0000000        1722.8066406        3.1933593750    
 3142-66-19      1759.0000000        1737.9272461        21.072753906    
 3138-21-346     1718.0000000        1750.6193848       -32.619384766    
 3138-56-24      1708.0000000        1723.4350586       -15.435058594    
 3138-61-55      1727.0000000        1722.9324951        4.0675048828    
 3138-66-19      1760.0000000        1738.1995850        21.800415039    
 3119-48-337     1687.0000000        1710.3302002       -23.330200195    
 3119-56-23      1712.0000000        1723.0161133       -11.016113281    
 3119-61-60      1732.0000000        1722.1737061        9.8262939453    
 3119-66-18      1768.0000000        1739.1900635        28.809936523    
 3130-2-305      1828.0000000        1808.3259277        19.674072266    
 3108-8-32       1790.0000000        1810.4731445       -20.473144531    
 3104-56-26      1723.0000000        1737.7395020       -14.739501953    
 3104-61-55      1744.0000000        1738.6131592        5.3868408203    
 3104-66-19      1777.0000000        1763.4863281        13.513671875    
 3102-56-26      1724.0000000        1739.1455078       -15.145507812    
 3102-61-55      1744.0000000        1740.1611328        3.8388671875    
 3102-66-19      1776.0000000        1765.3387451        10.661254883    
 3140-48-300     1690.0000000        1730.3243408       -40.324340820    
 3141-48-300     1693.0000000        1730.3243408       -37.324340820    
 3061-66-19      1799.0000000        1800.9794922       -1.9794921875    
 3085-1-337      1814.0000000        1830.4075928       -16.407592773    
 3085-6-286      1805.0000000        1827.3081055       -22.308105469    
 3085-11-361     1794.0000000        1819.7031250       -25.703125000    
 3085-16-350     1764.0000000        1800.1286621       -36.128662109    
 3085-21-346     1739.0000000        1784.0692139       -45.069213867    
 3064-56-25      1746.0000000        1768.6140137       -22.614013672    
 3083-56-23      1725.0000000        1742.0969238       -17.096923828    
 3083-61-55      1747.0000000        1743.6047363        3.3952636719    
 3083-66-18      1785.0000000        1772.9157715        12.084228516    
 3084-10-60      1787.0000000        1807.0439453       -20.043945312    
 3084-48-341     1690.0000000        1718.3232422       -28.323242188    
 3084-56-23      1716.0000000        1729.9498291       -13.949829102    
 3084-61-55      1737.0000000        1730.1208496        6.8791503906    
 3084-66-18      1775.0000000        1757.0853271        17.914672852    
 3081-48-341     1690.0000000        1716.8526611       -26.852661133    
 3081-56-23      1714.0000000        1728.5747070       -14.574707031    
 3081-61-55      1736.0000000        1728.6755371        7.3244628906    
 3081-66-18      1774.0000000        1754.6015625        19.398437500    
 3079-1-365      1791.0000000        1813.4936523       -22.493652344    
 3058-48-337     1697.0000000        1727.0202637       -30.020263672    
 3058-56-23      1722.0000000        1737.9260254       -15.926025391    
 3058-61-55      1745.0000000        1740.3220215        4.6779785156    
 3058-66-18      1782.0000000        1778.0421143        3.9578857422    
 3086-12-247     1778.0000000        1790.1080322       -12.108032227    
 3107-1-365      1784.0000000        1799.4837646       -15.483764648    
 3107-11-334     1774.0000000        1785.7076416       -11.707641602    
 3040-10-32      1777.0000000        1804.9283447       -27.928344727    
 3017-71-5       1785.0000000        1754.6574707        30.342529297    
 3017-71-365     1787.0000000        1758.1109619        28.889038086    
 3015-55-354     1715.0000000        1713.8297119        1.1702880859    
 3015-71-5       1790.0000000        1754.7387695        35.261230469    
 3015-71-365     1792.0000000        1758.1600342        33.839965820    
 3054-10-32      1780.0000000        1808.0599365       -28.059936523    
 3046-12-247     1759.0000000        1796.4583740       -37.458374023    
 3046-16-350     1748.0000000        1780.3697510       -32.369750977    
 3046-21-343     1714.0000000        1754.4975586       -40.497558594    
 3046-32-8       1684.0000000        1717.5090332       -33.509033203    
 3046-36-87      1671.0000000        1710.5278320       -39.527832031    
 3036-11-18      1788.0000000        1806.9228516       -18.922851562    
 3036-16-350     1755.0000000        1782.6801758       -27.680175781    
 3036-21-335     1722.0000000        1756.5277100       -34.527709961    
 3030-12-247     1770.0000000        1807.7481689       -37.748168945    
 3030-16-350     1757.0000000        1791.7845459       -34.784545898    
 3030-21-346     1725.0000000        1767.2481689       -42.248168945    
 3038-1-337      1816.0000000        1836.3664551       -20.366455078    
 3038-6-286      1808.0000000        1834.9918213       -26.991821289    
 3038-11-338     1796.0000000        1824.6146240       -28.614624023    
 3038-16-350     1765.0000000        1804.5251465       -39.525146484    
 3038-21-312     1732.0000000        1783.7253418       -51.725341797    
 3038-42-349     1678.0000000        1738.7889404       -60.788940430    
 3035-48-337     1709.0000000        1745.6704102       -36.670410156    
 3035-56-23      1737.0000000        1754.7543945       -17.754394531    
 3035-60-319     1755.0000000        1757.3585205       -2.3585205078    
 3035-66-18      1790.0000000        1795.1634521       -5.1634521484    
 3035-71-11      1802.0000000        1822.9475098       -20.947509766    
 3035-71-365     1804.0000000        1825.4342041       -21.434204102    
 3007-12-76      1799.0000000        1827.4692383       -28.469238281    
 3007-48-337     1714.0000000        1750.3891602       -36.389160156    
 3007-56-23      1743.0000000        1759.7280273       -16.728027344    
 3007-61-55      1764.0000000        1760.2637939        3.7362060547    
 3007-66-18      1797.0000000        1793.8964844        3.1035156250    
 3032-10-32      1837.0000000        1845.0729980       -8.0729980469    
 3032-48-337     1721.0000000        1762.9909668       -41.990966797    
 3032-56-23      1749.0000000        1769.6257324       -20.625732422    
 3032-61-55      1769.0000000        1771.1292725       -2.1292724609    
 3032-66-27      1792.0000000        1802.9591064       -10.959106445    
 3006-56-23      1745.0000000        1768.3272705       -23.327270508    
 3006-61-55      1767.0000000        1772.8684082       -5.8684082031    
 3006-66-18      1801.0000000        1816.5087891       -15.508789062    
 3005-10-60      1836.0000000        1850.6890869       -14.689086914    
 3005-48-337     1770.0000000        1771.2473145       -1.2473144531    
 3005-56-23      1795.0000000        1777.5003662        17.499633789    
 3005-61-55      1805.0000000        1779.7558594        25.244140625    
 3005-66-18      1812.0000000        1814.8999023       -2.8999023438    
 3002-56-23      1794.0000000        1786.7558594        7.2441406250    
 3002-61-55      1805.0000000        1787.5897217        17.410278320    
 3002-66-19      1810.0000000        1816.9030762       -6.9030761719    
 3182-48-337     1674.0000000        1688.1624756       -14.162475586    
 3182-56-19      1692.0000000        1700.2421875       -8.2421875000    
 3182-61-60      1708.0000000        1698.0028076        9.9971923828    
 3182-66-27      1739.0000000        1703.3074951        35.692504883    
 3155-8-1        1775.0000000        1790.0765381       -15.076538086    
 3155-48-337     1676.0000000        1695.8601074       -19.860107422    
 3155-56-19      1717.0000000        1707.7058105        9.2941894531    
 3155-66-24      1748.0000000        1713.5231934        34.476806641    
 2695-43-60      1677.0000000        1692.1635742       -15.163574219    
 2695-55-354     1712.0000000        1713.7828369       -1.7828369141    
 2695-61-7       1726.0000000        1714.9241943        11.075805664    
 2695-65-361     1770.0000000        1730.5527344        39.447265625    
 2695-71-5       1782.0000000        1754.4923096        27.507690430    
 2695-71-365     1784.0000000        1757.9162598        26.083740234    
 3037-48-364     1774.0000000        1796.9102783       -22.910278320    
 3009-56-25      1908.0000000        1842.3699951        65.630004883    
 3009-61-55      1906.0000000        1837.8989258        68.101074219    
 3001-56-25      1910.0000000        1845.5546875        64.445312500    
 3001-61-55      1908.0000000        1840.8240967        67.175903320    
 3004-17-1       2018.0000000        2015.8154297        2.1845703125    
 3004-22-1       2015.0000000        2013.7731934        1.2268066406    
 3004-27-32      2001.0000000        2008.8709717       -7.8709716797    
 3004-37-36      2005.0000000        1997.7872314        7.2127685547    
 3004-66-24      2001.0000000        1955.6043701        45.395629883    
 3004-71-57      1994.0000000        1953.2517090        40.748291016    
 3010-48-334     2113.0000000        2104.6318359        8.3681640625    
 3010-56-27      2109.0000000        2096.6066895        12.393310547    
 3039-42-364     2228.0000000        2293.8347168       -65.834716797    
 3039-48-335     2245.0000000        2291.4978027       -46.497802734    
 3039-56-25      2227.0000000        2287.1953125       -60.195312500    
 3019-31-297     2244.0000000        2238.4252930        5.5747070312    
 2997-36-32      2229.0000000        2249.9882812       -20.988281250    
 2997-43-41      2230.0000000        2245.9047852       -15.904785156    
 2997-48-334     2229.0000000        2242.3505859       -13.350585938    
 3012-31-339     2316.0000000        2284.8137207        31.186279297    
 3016-8-222      2284.0000000        2328.7463379       -44.746337891    
 3016-11-53      2300.0000000        2328.4228516       -28.422851562    
 3014-42-365     2297.0000000        2326.9218750       -29.921875000    
 3014-48-334     2299.0000000        2325.7021484       -26.702148438    
 3014-56-24      2299.0000000        2319.5820312       -20.582031250    
 3014-61-59      2298.0000000        2308.2587891       -10.258789062    
 3014-66-25      2291.0000000        2294.8308105       -3.8308105469    
 3014-71-54      2278.0000000        2281.2824707       -3.2824707031    
 3013-43-6       2316.0000000        2338.7490234       -22.749023438    
 3013-48-335     2319.0000000        2337.2644043       -18.264404297    
 3013-56-26      2319.0000000        2328.5302734       -9.5302734375    
 3013-66-28      2310.0000000        2304.4846191        5.5153808594    
 3041-66-33      2468.0000000        2466.5910645        1.4089355469    
 3041-71-61      2459.0000000        2456.1435547        2.8564453125    
 3055-11-56      2467.0000000        2496.9223633       -29.922363281    
 3055-43-6       2457.0000000        2511.4865723       -54.486572266    
 3055-48-335     2469.0000000        2516.0793457       -47.079345703    
 3055-56-19      2469.0000000        2507.3911133       -38.391113281    
 3251-48-334     3019.0000000        2965.5725098        53.427490234    
 3246-56-26      2986.0000000        2958.5427246        27.457275391    
 3248-16-116     2955.0000000        2920.6806641        34.319335938    
 3248-21-116     2975.0000000        2942.4262695        32.573730469    
 3248-26-125     2959.0000000        2962.2468262       -3.2468261719    
 3248-31-111     2961.0000000        2964.1049805       -3.1049804688    
 3248-37-36      2957.0000000        2949.1247559        7.8752441406    
 3248-43-81      2972.0000000        2965.8186035        6.1813964844    
 3248-48-334     2988.0000000        2965.3002930        22.699707031    
 3248-56-26      2987.0000000        2959.1643066        27.835693359    
 3248-71-61      2965.0000000        2941.6752930        23.324707031    
 3242-56-26      2985.0000000        2946.8391113        38.160888672    
 3241-61-61      2998.0000000        2945.5991211        52.400878906    
 3241-66-18      2981.0000000        2957.4597168        23.540283203    
 3241-71-61      3005.0000000        2942.6723633        62.327636719    
 3235-71-64      3012.0000000        2930.9470215        81.052978516    
 3221-66-33      2925.0000000        2896.1293945        28.870605469    
 3262-42-335     2939.0000000        2901.2324219        37.767578125    
 3262-49-8       2944.0000000        2907.5898438        36.410156250    
 3262-55-342     2943.0000000        2906.0668945        36.933105469    
 3262-61-35      2939.0000000        2902.5346680        36.465332031    
 3262-66-33      2931.0000000        2901.6054688        29.394531250    
 3262-71-323     2925.0000000        2897.2387695        27.761230469    
 3256-27-125     2931.0000000        2882.9157715        48.084228516    
 3256-37-36      2916.0000000        2887.6110840        28.388916016    
 3256-48-356     2938.0000000        2894.8969727        43.103027344    
 3256-55-342     2934.0000000        2893.3056641        40.694335938    
 3256-66-33      2926.0000000        2889.0336914        36.966308594    
 3256-71-323     2917.0000000        2883.7275391        33.272460938    
 3252-43-81      2932.0000000        2890.0715332        41.928466797    
 3252-48-336     2934.0000000        2890.3134766        43.686523438    
 3252-56-27      2930.0000000        2890.4853516        39.514648438    
 3252-60-323     2929.0000000        2884.4057617        44.594238281    
 3252-65-299     2923.0000000        2888.1740723        34.825927734    
 3252-71-365     2915.0000000        2881.5959473        33.404052734    
 3253-55-342     2930.0000000        2893.5187988        36.481201172    
 3253-60-335     2927.0000000        2887.0610352        39.938964844    
 3253-66-34      2925.0000000        2888.3881836        36.611816406    
 3253-71-323     2917.0000000        2883.2607422        33.739257812    
 3263-16-299     2905.0000000        2843.7419434        61.258056641    
 3263-26-127     2904.0000000        2860.2480469        43.751953125    
 3263-43-60      2902.0000000        2870.9819336        31.018066406    
 3263-48-356     2911.0000000        2874.8378906        36.162109375    
 3263-56-24      2900.0000000        2872.8679199        27.132080078    
 3263-66-33      2901.0000000        2869.4069824        31.593017578    
 3263-71-365     2895.0000000        2865.2478027        29.752197266    
 3224-56-27      2930.0000000        2887.6994629        42.300537109    
 3209-33-314     2882.0000000        2861.4785156        20.521484375    
 3210-43-81      2884.0000000        2862.1279297        21.872070312    
 3210-48-336     2887.0000000        2865.1635742        21.836425781    
 3210-56-26      2894.0000000        2862.1896973        31.810302734    
 3195-33-32      2815.0000000        2842.7863770       -27.786376953    
 3180-34-152     2820.0000000        2839.3173828       -19.317382812    
 3184-66-28      2857.0000000        2841.4228516        15.577148438    
 3184-71-62      2852.0000000        2838.9304199        13.069580078    
 3186-66-28      2856.0000000        2842.0871582        13.912841797    
 3186-71-60      2852.0000000        2839.6733398        12.326660156    
 3183-66-31      2872.0000000        2851.1823730        20.817626953    
 3207-43-7       2948.0000000        2918.5388184        29.461181641    
 3207-48-334     2964.0000000        2915.5830078        48.416992188    
 3207-56-26      2976.0000000        2911.3142090        64.685791016    
 3190-43-7       2890.0000000        2856.8166504        33.183349609    
 3190-48-336     2901.0000000        2863.7487793        37.251220703    
 3190-56-25      2904.0000000        2858.6862793        45.313720703    
 3194-71-62      2908.0000000        2881.3930664        26.606933594    
 3192-66-34      2931.0000000        2889.2158203        41.784179688    
 3192-71-60      2929.0000000        2879.6606445        49.339355469    
 3187-43-7       2909.0000000        2882.4670410        26.532958984    
 3187-48-334     2917.0000000        2876.2282715        40.771728516    
 3203-71-62      2945.0000000        2900.0354004        44.964599609    
 3165-71-62      2841.0000000        2835.4145508        5.5854492188    
 3148-43-7       2842.0000000        2818.1232910        23.876708984    
 3157-71-62      2841.0000000        2825.3666992        15.633300781    
 3152-71-62      2846.0000000        2818.4768066        27.523193359    
 3169-43-8       2834.0000000        2827.7250977        6.2749023438    
 3169-48-336     2821.0000000        2829.7702637       -8.7702636719    
 3169-66-34      2822.0000000        2822.8232422      -0.82324218750    
 3169-71-61      2805.0000000        2816.7038574       -11.703857422    
 3168-43-7       2830.0000000        2825.1555176        4.8444824219    
 3168-56-26      2830.0000000        2825.6660156        4.3339843750    
 3168-66-34      2829.0000000        2822.2458496        6.7541503906    
 3156-27-289     2792.0000000        2801.5895996       -9.5895996094    
 3144-43-7       2755.0000000        2794.2949219       -39.294921875    
 3144-56-25      2765.0000000        2793.9343262       -28.934326172    
 3144-66-34      2744.0000000        2790.2194824       -46.219482422    
 3144-71-60      2734.0000000        2785.0312500       -51.031250000    
 3110-43-5       2722.0000000        2758.9204102       -36.920410156    
 3110-48-335     2730.0000000        2760.2001953       -30.200195312    
 3136-43-7       2851.0000000        2826.7321777        24.267822266    
 3136-48-334     2861.0000000        2824.1220703        36.877929688    
 3136-56-26      2868.0000000        2821.6760254        46.323974609    
 3136-66-35      2846.0000000        2819.3242188        26.675781250    
 3136-71-61      2827.0000000        2811.9475098        15.052490234    
 3093-5-82       2709.0000000        2709.4750977      -0.47509765625    
 3093-6-97       2709.0000000        2709.1740723      -0.17407226562    
 3093-16-133     2692.0000000        2711.9926758       -19.992675781    
 3093-26-124     2688.0000000        2737.6184082       -49.618408203    
 3093-37-37      2684.0000000        2733.9858398       -49.985839844    
 3093-43-7       2727.0000000        2747.5268555       -20.526855469    
 3094-48-337     2811.0000000        2785.6911621        25.308837891    
 3094-66-33      2785.0000000        2777.8168945        7.1831054688    
 3094-71-61      2774.0000000        2774.4653320      -0.46533203125    
 3057-48-337     2564.0000000        2579.8991699       -15.899169922    
 3057-56-25      2558.0000000        2569.9799805       -11.979980469    
 3011-48-337     2533.0000000        2511.7666016        21.233398438    
 3011-66-33      2460.0000000        2454.6188965        5.3811035156    
 3011-71-61      2447.0000000        2443.4404297        3.5595703125    
 3026-48-337     2520.0000000        2551.7331543       -31.733154297    
 3026-56-25      2554.0000000        2539.9992676        14.000732422    
 2999-16-361     2530.0000000        2534.8635254       -4.8635253906    
 2999-22-31      2533.0000000        2545.5270996       -12.527099609    
 2999-27-11      2522.0000000        2555.6691895       -33.669189453    
 2999-31-351     2526.0000000        2555.9296875       -29.929687500    
 2999-37-343     2520.0000000        2550.5153809       -30.515380859    
 2999-56-25      2568.0000000        2543.6884766        24.311523438    
 2999-66-33      2500.0000000        2516.1972656       -16.197265625    
 2999-71-61      2475.0000000        2500.3457031       -25.345703125    
 2994-43-5       2561.0000000        2567.9331055       -6.9331054688    
 2994-56-25      2576.0000000        2554.3022461        21.697753906    
 3029-48-336     2649.0000000        2644.7753906        4.2246093750    
 3029-56-26      2651.0000000        2638.8989258        12.101074219    
 3029-66-33      2616.0000000        2624.6550293       -8.6550292969    
 3008-48-336     2686.0000000        2679.4152832        6.5847167969    
 3008-56-26      2693.0000000        2673.6384277        19.361572266    
 2963-1-107      1799.0000000        1813.9150391       -14.915039062    
 2948-17-4       1766.0000000        1781.7083740       -15.708374023    
 2982-48-348     1665.0000000        1696.9689941       -31.968994141    
 2982-55-354     1675.0000000        1705.1511230       -30.151123047    
 2982-61-7       1679.0000000        1706.9221191       -27.922119141    
 2982-66-55      1695.0000000        1713.0136719       -18.013671875    
 2982-71-355     1716.0000000        1729.7557373       -13.755737305    
 2968-71-365     1752.0000000        1732.3277588        19.672241211    
 2951-42-351     1676.0000000        1684.8048096       -8.8048095703    
 2951-48-348     1682.0000000        1700.8406982       -18.840698242    
 2951-55-354     1690.0000000        1708.3489990       -18.348999023    
 2951-61-5       1696.0000000        1710.1679688       -14.167968750    
 2951-66-20      1714.0000000        1715.9197998       -1.9197998047    
 2951-71-355     1736.0000000        1732.3952637        3.6047363281    
 2950-12-335     1795.0000000        1806.2521973       -11.252197266    
 2950-55-354     1695.0000000        1709.1763916       -14.176391602    
 2945-1-107      1802.0000000        1816.2808838       -14.280883789    
 2945-7-3        1799.0000000        1814.7451172       -15.745117188    
 2945-10-320     1798.0000000        1811.6964111       -13.696411133    
 2902-42-351     1680.0000000        1692.4901123       -12.490112305    
 2902-48-348     1690.0000000        1709.9326172       -19.932617188    
 2902-55-354     1697.0000000        1716.0449219       -19.044921875    
 2902-61-5       1703.0000000        1718.0881348       -15.088134766    
 2902-66-20      1715.0000000        1722.9283447       -7.9283447266    
 2902-71-355     1732.0000000        1738.3725586       -6.3725585938    
 2906-12-332     1816.0000000        1817.4505615       -1.4505615234    
 2906-17-4       1787.0000000        1793.7239990       -6.7239990234    
 2906-22-34      1763.0000000        1765.6654053       -2.6654052734    
 2906-32-85      1709.0000000        1709.0911865      -9.11865234375E-02
 2906-37-33      1693.0000000        1685.7841797        7.2158203125    
 2906-48-365     1698.0000000        1709.0947266       -11.094726562    
 2906-55-354     1704.0000000        1715.9108887       -11.910888672    
 2906-61-5       1712.0000000        1718.2725830       -6.2725830078    
 2906-66-20      1724.0000000        1723.7238770       0.27612304688    
 2906-71-365     1744.0000000        1740.1339111        3.8660888672    
 2922-16-313     1748.0000000        1786.6582031       -38.658203125    
 2922-22-34      1736.0000000        1758.0894775       -22.089477539    
 2922-27-13      1727.0000000        1731.9693604       -4.9693603516    
 2559-17-6       1766.0000000        1789.1868896       -23.186889648    
 2559-42-351     1729.0000000        1692.0863037        36.913696289    
 2559-48-348     1727.0000000        1706.5057373        20.494262695    
 2559-56-3       1747.0000000        1712.8050537        34.194946289    
 2559-66-20      1779.0000000        1731.4750977        47.524902344    
 2559-71-365     1791.0000000        1753.9014893        37.098510742    
 2920-1-109      1851.0000000        1820.5466309        30.453369141    
 2901-42-351     1703.0000000        1691.2175293        11.782470703    
 2901-55-355     1725.0000000        1713.6390381        11.360961914    
 2901-61-5       1741.0000000        1719.3806152        21.619384766    
 2901-66-20      1777.0000000        1732.9038086        44.096191406    
 2901-71-365     1790.0000000        1757.6433105        32.356689453    
 2905-17-6       1766.0000000        1790.6618652       -24.661865234    
 2905-22-34      1752.0000000        1761.9100342       -9.9100341797    
 2905-42-351     1705.0000000        1691.2593994        13.740600586    
 2905-71-50      1791.0000000        1754.2761230        36.723876953    
 2905-71-365     1792.0000000        1757.5533447        34.446655273    
 2907-42-351     1686.0000000        1695.3808594       -9.3808593750    
 2907-48-348     1710.0000000        1709.5312500       0.46875000000    
 2907-55-355     1725.0000000        1716.5832520        8.4167480469    
 2907-61-5       1744.0000000        1722.3544922        21.645507812    
 2907-66-20      1779.0000000        1734.1738281        44.826171875    
 2907-71-365     1793.0000000        1757.4359131        35.564086914    
 2900-17-6       1758.0000000        1790.9156494       -32.915649414    
 2900-56-20      1729.0000000        1712.8929443        16.107055664    
 2900-66-26      1782.0000000        1736.0919189        45.908081055    
 2874-3-290      1828.0000000        1829.2888184       -1.2888183594    
 2838-3-1        1817.0000000        1836.4096680       -19.409667969    
 2809-16-354     1803.0000000        1809.8051758       -6.8051757812    
 2788-1-105      1834.0000000        1847.5511475       -13.551147461    
 2788-7-3        1834.0000000        1845.3488770       -11.348876953    
 2788-11-311     1833.0000000        1840.1276855       -7.1276855469    
 2780-12-173     1827.0000000        1838.2236328       -11.223632812    
 2780-16-354     1802.0000000        1812.8004150       -10.800415039    
 2780-37-33      1689.0000000        1696.8195801       -7.8195800781    
 2779-16-354     1809.0000000        1814.0825195       -5.0825195312    
 2779-22-34      1782.0000000        1782.3015137      -0.30151367188    
 2777-16-354     1824.0000000        1815.3288574        8.6711425781    
 2787-16-335     1815.0000000        1815.7697754      -0.76977539062    
 2787-22-34      1802.0000000        1782.7999268        19.200073242    
 2787-34-351     1762.0000000        1710.7041016        51.295898438    
 2787-56-25      1747.0000000        1726.0927734        20.907226562    
 2787-61-52      1751.0000000        1736.4633789        14.536621094    
 2787-66-25      1760.0000000        1740.4882812        19.511718750    
 2783-17-6       1822.0000000        1813.9121094        8.0878906250    
 2783-56-25      1749.0000000        1731.0861816        17.913818359    
 2783-66-20      1780.0000000        1743.3206787        36.679321289    
 2783-71-365     1781.0000000        1764.1578369        16.842163086    
 2790-66-20      1764.0000000        1746.2283936        17.771606445    
 2790-71-365     1774.0000000        1764.6944580        9.3055419922    
 2745-16-354     1825.0000000        1821.2940674        3.7059326172    
 2745-66-20      1767.0000000        1744.9713135        22.028686523    
 2745-71-365     1771.0000000        1763.4815674        7.5184326172    
 2775-1-86       1838.0000000        1850.5102539       -12.510253906    
 2775-7-68       1836.0000000        1847.9776611       -11.977661133    
 2731-48-348     1740.0000000        1727.0174561        12.982543945    
 2731-55-354     1732.0000000        1736.8087158       -4.8087158203    
 2731-61-5       1751.0000000        1744.2872314        6.7127685547    
 2731-66-20      1763.0000000        1747.2384033        15.761596680    
 2731-71-365     1772.0000000        1764.1314697        7.8685302734    
 2771-22-21      1796.0000000        1780.7368164        15.263183594    
 2718-17-6       1829.0000000        1823.9234619        5.0765380859    
 2718-27-13      1784.0000000        1761.1968994        22.803100586    
 2769-56-26      1705.0000000        1731.4451904       -26.445190430    
 2769-61-55      1708.0000000        1733.2746582       -25.274658203    
 2769-66-26      1715.0000000        1737.0064697       -22.006469727    
 2758-7-344      1835.0000000        1844.8488770       -9.8488769531    
 2675-48-348     1693.0000000        1732.1857910       -39.185791016    
 2675-61-4       1704.0000000        1744.4930420       -40.493041992    
 2675-66-20      1711.0000000        1748.8037109       -37.803710938    
 2675-71-365     1726.0000000        1758.1018066       -32.101806641    
 2637-42-351     1723.0000000        1719.0285645        3.9714355469    
 2637-48-349     1721.0000000        1737.6658936       -16.665893555    
 2637-55-355     1721.0000000        1747.9666748       -26.966674805    
 2637-61-4       1722.0000000        1750.1840820       -28.184082031    
 2637-66-51      1728.0000000        1755.0874023       -27.087402344    
 2637-71-365     1741.0000000        1763.1230469       -22.123046875    
 2641-16-355     1822.0000000        1830.8956299       -8.8956298828    
 2641-56-25      1716.0000000        1748.9826660       -32.982666016    
 2641-61-53      1720.0000000        1750.2460938       -30.246093750    
 2641-66-26      1717.0000000        1756.9733887       -39.973388672    
 2640-42-351     1705.0000000        1721.2375488       -16.237548828    
 2640-48-348     1712.0000000        1741.5307617       -29.530761719    
 2640-55-355     1717.0000000        1750.0948486       -33.094848633    
 2640-61-4       1721.0000000        1752.1766357       -31.176635742    
 2640-66-20      1732.0000000        1757.4871826       -25.487182617    
 2640-71-4       1743.0000000        1763.1201172       -20.120117188    
 2640-71-365     1745.0000000        1766.2292480       -21.229248047    
 2636-42-351     1705.0000000        1721.1899414       -16.189941406    
 2636-48-348     1710.0000000        1741.4199219       -31.419921875    
 2636-55-355     1704.0000000        1750.0269775       -46.026977539    
 2636-61-4       1718.0000000        1752.1530762       -34.153076172    
 2636-66-20      1727.0000000        1757.3894043       -30.389404297    
 2636-71-5       1738.0000000        1763.0809326       -25.080932617    
 2636-71-365     1741.0000000        1766.1724854       -25.172485352    
 2639-12-178     1856.0000000        1861.2211914       -5.2211914062    
 2639-16-354     1839.0000000        1834.3422852        4.6577148438    
 2639-42-351     1715.0000000        1724.1516113       -9.1516113281    
 2639-48-348     1725.0000000        1742.5720215       -17.572021484    
 2639-71-50      1753.0000000        1763.4620361       -10.462036133    
 2639-71-365     1754.0000000        1765.8170166       -11.817016602    
 2654-56-25      1734.0000000        1751.3258057       -17.325805664    
 2654-61-52      1736.0000000        1754.3186035       -18.318603516    
 2978-1-364      1871.0000000        1876.5220947       -5.5220947266    
 2978-4-93       1868.0000000        1876.5646973       -8.5646972656    
 2964-48-300     1788.0000000        1812.5955811       -24.595581055    
 2964-55-321     1815.0000000        1814.9832764       1.67236328125E-02
 2964-60-313     1823.0000000        1814.5339355        8.4660644531    
 2964-65-364     1827.0000000        1832.7642822       -5.7642822266    
 2964-71-349     1835.0000000        1857.2701416       -22.270141602    
 2965-71-350     1956.0000000        1859.5981445        96.401855469    
 2985-17-5       1729.0000000        1790.7838135       -61.783813477    
 2985-56-24      1725.0000000        1736.0977783       -11.097778320    
 2985-61-56      1753.0000000        1742.5037842        10.496215820    
 2985-66-18      1803.0000000        1784.4761963        18.523803711    
 2913-56-23      1741.0000000        1717.2904053        23.709594727    
 2921-1-86       1806.0000000        1828.3751221       -22.375122070    
 2921-7-3        1801.0000000        1826.0825195       -25.082519531    
 2921-10-320     1794.0000000        1822.0352783       -28.035278320    
 2921-12-361     1787.0000000        1813.3852539       -26.385253906    
 2938-56-26      1732.0000000        1743.2564697       -11.256469727    
 2938-61-59      1755.0000000        1749.8372803        5.1627197266    
 2938-66-20      1805.0000000        1788.6651611        16.334838867    
 2935-22-34      1724.0000000        1768.7088623       -44.708862305    
 2935-27-20      1702.0000000        1746.5501709       -44.550170898    
 2935-56-24      1723.0000000        1735.9918213       -12.991821289    
 2935-61-56      1746.0000000        1741.7860107        4.2139892578    
 2935-66-19      1797.0000000        1775.4462891        21.553710938    
 2943-48-275     1710.0000000        1750.1566162       -40.156616211    
 2944-48-275     1707.0000000        1752.9069824       -45.906982422    
 2936-56-24      1826.0000000        1809.6190186        16.380981445    
 2936-61-55      1834.0000000        1812.2120361        21.787963867    
 2937-17-5       1815.0000000        1842.0653076       -27.065307617    
 2937-22-34      1798.0000000        1822.1850586       -24.185058594    
 2937-32-85      1767.0000000        1798.7161865       -31.716186523    
 2937-42-349     1749.0000000        1782.2182617       -33.218261719    
 2937-48-341     1779.0000000        1784.4908447       -5.4908447266    
 2937-56-24      1805.0000000        1792.4552002        12.544799805    
 2937-65-302     1818.0000000        1818.8419189      -0.84191894531    
 2915-12-6       1856.0000000        1876.2283936       -20.228393555    
 2915-17-5       1829.0000000        1860.4793701       -31.479370117    
 2915-56-24      1818.0000000        1808.2581787        9.7418212891    
 2915-61-56      1828.0000000        1811.6895752        16.310424805    
 2915-66-19      1834.0000000        1828.9550781        5.0449218750    
 2863-48-275     1773.0000000        1743.5767822        29.423217773    
 2864-48-275     1775.0000000        1747.7847900        27.215209961    
 2885-17-5       1811.0000000        1812.4564209       -1.4564208984    
 2885-56-24      1794.0000000        1750.3529053        43.647094727    
 2885-61-56      1810.0000000        1756.3178711        53.682128906    
 2867-17-6       1763.0000000        1802.7067871       -39.706787109    
 2867-21-335     1730.0000000        1776.9772949       -46.977294922    
 2867-56-24      1732.0000000        1737.6694336       -5.6694335938    
 2867-61-56      1751.0000000        1743.3889160        7.6110839844    
 2867-66-19      1792.0000000        1768.3480225        23.651977539    
 2887-56-24      1732.0000000        1728.4232178        3.5767822266    
 2887-66-19      1779.0000000        1753.4915771        25.508422852    
 2886-17-6       1759.0000000        1796.6348877       -37.634887695    
 2886-56-24      1727.0000000        1729.9145508       -2.9145507812    
 2886-61-56      1748.0000000        1734.0726318        13.927368164    
 2886-66-27      1789.0000000        1757.1118164        31.888183594    
 2850-1-86       1825.0000000        1838.4061279       -13.406127930    
 2850-7-4        1820.0000000        1832.7943115       -12.794311523    
 2850-12-361     1812.0000000        1825.9522705       -13.952270508    
 2837-12-284     1798.0000000        1827.6258545       -29.625854492    
 2837-16-354     1759.0000000        1798.6695557       -39.669555664    
 2837-22-34      1730.0000000        1769.3186035       -39.318603516    
 2837-32-85      1685.0000000        1722.1549072       -37.154907227    
 2837-37-34      1676.0000000        1712.1025391       -36.102539062    
 2837-42-349     1690.0000000        1704.2186279       -14.218627930    
 2837-48-341     1709.0000000        1716.0725098       -7.0725097656    
 2837-56-24      1730.0000000        1729.8920898       0.10791015625    
 2837-60-319     1750.0000000        1733.5207520        16.479248047    
 2837-65-298     1789.0000000        1752.7395020        36.260498047    
 2837-71-11      1802.0000000        1778.8204346        23.179565430    
 2837-71-365     1807.0000000        1782.1417236        24.858276367    
 2818-17-6       1760.0000000        1800.8334961       -40.833496094    
 2818-56-24      1738.0000000        1730.1696777        7.8303222656    
 2818-61-52      1757.0000000        1734.1339111        22.866088867    
 2818-66-25      1793.0000000        1751.6346436        41.365356445    
 2800-48-348     1708.0000000        1718.4628906       -10.462890625    
 2800-55-355     1729.0000000        1730.5516357       -1.5516357422    
 2800-61-7       1747.0000000        1734.6221924        12.377807617    
 2800-65-341     1780.0000000        1749.8222656        30.177734375    
 2800-71-50      1796.0000000        1773.1143799        22.885620117    
 2800-71-365     1797.0000000        1776.0754395        20.924560547    
 2786-56-24      1730.0000000        1730.9954834      -0.99548339844    
 2786-61-52      1745.0000000        1735.0361328        9.9638671875    
 2786-66-25      1781.0000000        1750.0832520        30.916748047    
 2770-1-86       1835.0000000        1846.6827393       -11.682739258    
 2770-7-4        1831.0000000        1843.2694092       -12.269409180    
 2770-12-361     1826.0000000        1835.5660400       -9.5660400391    
 2744-56-24      1736.0000000        1732.0261230        3.9738769531    
 2740-56-24      1735.0000000        1731.9229736        3.0770263672    
 2741-17-6       1783.0000000        1810.7438965       -27.743896484    
 2694-1-86       1871.0000000        1854.6401367        16.359863281    
 2694-5-67       1870.0000000        1852.8049316        17.195068359    
 2643-2-60       1888.0000000        1880.8116455        7.1883544922    
 2643-6-284      1886.0000000        1880.1900635        5.8099365234    
 2643-11-275     1876.0000000        1878.8142090       -2.8142089844    
 2933-56-23      1728.0000000        1717.2050781        10.794921875    
 2851-16-354     1770.0000000        1795.8800049       -25.880004883    
 2851-65-341     1790.0000000        1740.0427246        49.957275391    
 2851-71-50      1799.0000000        1764.9715576        34.028442383    
 2851-71-365     1799.0000000        1767.9862061        31.013793945    
 2854-65-341     1784.0000000        1743.0472412        40.952758789    
 2854-71-50      1797.0000000        1767.8317871        29.168212891    
 2854-71-365     1798.0000000        1770.7614746        27.238525391    
 2796-61-52      1752.0000000        1733.7202148        18.279785156    
 2796-66-33      1772.0000000        1746.6154785        25.384521484    
 2712-42-351     1745.0000000        1717.5942383        27.405761719    
 2712-48-348     1750.0000000        1729.9188232        20.081176758    
 2712-56-27      1756.0000000        1741.4407959        14.559204102    
 2712-61-7       1758.0000000        1746.3071289        11.692871094    
 2712-66-55      1770.0000000        1753.4860840        16.513916016    
 2712-71-365     1778.0000000        1770.0202637        7.9797363281    
 2709-55-355     1767.0000000        1751.4412842        15.558715820    
 2709-61-7       1781.0000000        1756.4110107        24.588989258    
 2709-65-341     1781.0000000        1761.0661621        19.933837891    
 2709-71-365     1785.0000000        1775.1091309        9.8908691406    
 2702-42-351     1782.0000000        1718.1348877        63.865112305    
 2702-48-348     1773.0000000        1729.5205078        43.479492188    
 2702-56-27      1770.0000000        1741.0531006        28.946899414    
 2702-61-7       1770.0000000        1745.8286133        24.171386719    
 2702-65-341     1777.0000000        1753.2141113        23.785888672    
 2702-71-365     1790.0000000        1770.5635986        19.436401367    
 2711-39-335     1752.0000000        1719.8250732        32.174926758    
 2711-56-26      1755.0000000        1740.7359619        14.264038086    
 2711-61-7       1757.0000000        1745.4742432        11.525756836    
 2711-65-341     1768.0000000        1753.2774658        14.722534180    
 2711-71-365     1779.0000000        1771.1638184        7.8361816406    
 2713-42-351     1746.0000000        1716.2954102        29.704589844    
 2713-56-26      1755.0000000        1739.4196777        15.580322266    
 2713-61-7       1756.0000000        1744.0924072        11.907592773    
 2713-65-341     1770.0000000        1752.4045410        17.595458984    
 2713-71-365     1780.0000000        1771.1536865        8.8463134766    
 2682-56-23      1758.0000000        1737.7587891        20.241210938    
 2682-61-53      1756.0000000        1740.4829102        15.517089844    
 2682-66-28      1763.0000000        1749.2883301        13.711669922    
 2866-12-332     1810.0000000        1821.7103271       -11.710327148    
 2866-17-6       1764.0000000        1795.7652588       -31.765258789    
 2998-43-6       2076.0000000        2058.1076660        17.892333984    
 3416-56-26      1932.0000000        1885.0158691        46.984130859    
 3416-61-55      1926.0000000        1876.9056396        49.094360352    
 3416-66-19      1911.0000000        1880.1365967        30.863403320    
 2986-8-305      1907.0000000        1916.1202393       -9.1202392578    
 2960-1-365      1941.0000000        1936.5072021        4.4927978516    
 2961-56-25      1958.0000000        1901.6339111        56.366088867    
 2961-61-59      1947.0000000        1893.2055664        53.794433594    
 2961-66-19      1917.0000000        1893.9285889        23.071411133    
 2957-56-25      1965.0000000        1909.2978516        55.702148438    
 2957-61-59      1978.0000000        1900.1187744        77.881225586    
 2988-1-51       1886.0000000        1898.3612061       -12.361206055    
 2984-8-213      1873.0000000        1895.4237061       -22.423706055    
 2971-7-60       1916.0000000        1922.3088379       -6.3088378906    
 2969-56-25      1917.0000000        1855.8326416        61.167358398    
 2969-61-55      1914.0000000        1850.5377197        63.462280273    
 2969-66-19      1855.0000000        1859.2053223       -4.2053222656    
 2976-56-25      1862.0000000        1847.7351074        14.264892578    
 2976-61-55      1862.0000000        1843.1593018        18.840698242    
 2976-66-19      1846.0000000        1853.3107910       -7.3107910156    
 2972-56-25      1858.0000000        1845.9957275        12.004272461    
 2972-66-19      1844.0000000        1852.6557617       -8.6557617188    
 2919-21-335     1807.0000000        1844.4865723       -37.486572266    
 2946-56-25      1956.0000000        1908.0631104        47.936889648    
 2946-66-19      1917.0000000        1899.5550537        17.444946289    
 2927-22-17      1953.0000000        1952.5227051       0.47729492188    
 2927-27-32      1950.0000000        1947.5883789        2.4116210938    
 2955-8-276      1884.0000000        1928.4874268       -44.487426758    
 2955-12-40      1882.0000000        1923.8005371       -41.800537109    
 2955-17-1       1870.0000000        1917.6357422       -47.635742188    
 2955-27-32      1849.0000000        1899.7155762       -50.715576172    
 2955-32-12      1857.0000000        1893.3394775       -36.339477539    
 2955-37-1       1849.0000000        1882.6387939       -33.638793945    
 2926-56-26      1971.0000000        1925.3908691        45.609130859    
 2926-61-59      1956.0000000        1916.9368896        39.063110352    
 2942-1-365      1980.0000000        1994.8270264       -14.827026367    
 2916-56-25      1981.0000000        1937.6208496        43.379150391    
 2916-61-59      1963.0000000        1927.9201660        35.079833984    
 2916-66-20      1933.0000000        1922.5690918        10.430908203    
 2941-42-364     2010.0000000        2003.1627197        6.8372802734    
 2941-48-335     2013.0000000        1996.4733887        16.526611328    
 2941-56-23      2015.0000000        1983.5314941        31.468505859    
 2941-61-59      2009.0000000        1970.2379150        38.762084961    
 2941-66-26      2003.0000000        1961.1145020        41.885498047    
 2941-71-54      1985.0000000        1958.5372314        26.462768555    
 3185-34-152     2050.0000000        2047.1364746        2.8635253906    
 2925-42-364     2042.0000000        2019.8358154        22.164184570    
 2925-48-335     2045.0000000        2012.8974609        32.102539062    
 2925-56-23      2044.0000000        1999.0295410        44.970458984    
 2925-66-26      2024.0000000        1974.8730469        49.126953125    
 2925-71-54      2018.0000000        1970.4573975        47.542602539    
 2954-42-363     2095.0000000        2053.2111816        41.788818359    
 2954-56-23      2088.0000000        2031.8907471        56.109252930    
 2954-61-59      2078.0000000        2020.2725830        57.727416992    
 2954-66-27      2077.0000000        2009.6771240        67.322875977    
 2889-42-364     2041.0000000        2035.2116699        5.7883300781    
 2889-48-336     2056.0000000        2028.0572510        27.942749023    
 2889-56-24      2053.0000000        2013.2054443        39.794555664    
 2880-22-18      2092.0000000        2081.2531738        10.746826172    
 2880-27-32      2088.0000000        2075.5627441        12.437255859    
 2880-38-1       2076.0000000        2060.9133301        15.086669922    
 2880-42-363     2076.0000000        2052.2011719        23.798828125    
 2893-1-274      2091.0000000        2076.8925781        14.107421875    
 2893-4-279      2087.0000000        2073.3918457        13.608154297    
 2893-5-285      2084.0000000        2072.5349121        11.465087891    
 2893-12-46      2075.0000000        2064.5712891        10.428710938    
 2893-17-19      2069.0000000        2061.9658203        7.0341796875    
 2893-22-1       2063.0000000        2061.6618652        1.3381347656    
 2893-27-32      2062.0000000        2055.9772949        6.0227050781    
 2893-32-14      2062.0000000        2053.1298828        8.8701171875    
 2893-38-1       2055.0000000        2040.0628662        14.937133789    
 2896-42-363     2024.0000000        2015.8894043        8.1105957031    
 2853-42-364     2049.0000000        2037.2662354        11.733764648    
 2853-48-336     2053.0000000        2029.9046631        23.095336914    
 2853-56-24      2052.0000000        2014.7246094        37.275390625    
 2853-61-59      2043.0000000        1999.5378418        43.462158203    
 2853-66-27      2025.0000000        1985.8833008        39.116699219    
 2853-71-55      2016.0000000        1982.0780029        33.921997070    
 2858-42-363     1992.0000000        2000.7500000       -8.7500000000    
 2858-48-336     2008.0000000        1995.0258789        12.974121094    
 2858-56-24      2017.0000000        1981.9637451        35.036254883    
 2858-61-59      2004.0000000        1968.5159912        35.484008789    
 2858-66-27      1969.0000000        1954.5963135        14.403686523    
 2858-71-62      1974.0000000        1958.4301758        15.569824219    
 2904-2-1        2009.0000000        2017.4761963       -8.4761962891    
 2892-1-360      2007.0000000        2020.7684326       -13.768432617    
 2892-7-65       1995.0000000        2009.0533447       -14.053344727    
 2892-11-334     1988.0000000        2006.1285400       -18.128540039    
 2892-16-318     1984.0000000        2007.3759766       -23.375976562    
 2892-22-34      1982.0000000        2002.4085693       -20.408569336    
 2892-27-32      1986.0000000        1998.3566895       -12.356689453    
 2892-31-351     1982.0000000        1990.8879395       -8.8879394531    
 2892-36-50      1996.0000000        1977.8204346        18.179565430    
 2909-56-25      1986.0000000        1945.2434082        40.756591797    
 2909-61-59      1960.0000000        1935.2275391        24.772460938    
 2909-66-19      1938.0000000        1928.3039551        9.6960449219    
 2911-56-25      1984.0000000        1943.7872314        40.212768555    
 2911-61-59      1964.0000000        1933.9422607        30.057739258    
 2911-66-19      1937.0000000        1927.3061523        9.6938476562    
 2884-66-32      1943.0000000        1934.1910400        8.8089599609    
 2865-8-91       1980.0000000        2006.2082520       -26.208251953    
 2865-48-342     1982.0000000        1964.1199951        17.880004883    
 2848-66-32      1961.0000000        1947.8292236        13.170776367    
 2881-48-342     1981.0000000        1960.6048584        20.395141602    
 2859-8-121      1997.0000000        2006.7111816       -9.7111816406    
 2871-56-24      1811.0000000        1785.4465332        25.553466797    
 2871-61-59      1816.0000000        1799.5216064        16.478393555    
 2871-66-27      1823.0000000        1814.9031982        8.0968017578    
 2811-17-6       1836.0000000        1855.3859863       -19.385986328    
 2811-22-34      1823.0000000        1838.4477539       -15.447753906    
 2811-56-24      1832.0000000        1780.8216553        51.178344727    
 2811-61-59      1835.0000000        1795.7364502        39.263549805    
 2834-48-342     1994.0000000        1970.2619629        23.738037109    
 2835-48-342     1994.0000000        1971.3265381        22.673461914    
 2835-56-24      2006.0000000        1956.3543701        49.645629883    
 2849-42-363     1982.0000000        1988.7298584       -6.7298583984    
 2849-48-336     2003.0000000        1984.8596191        18.140380859    
 2828-55-343     2013.0000000        1975.1098633        37.890136719    
 2828-61-38      2000.0000000        1962.5620117        37.437988281    
 2828-66-55      1961.0000000        1947.9813232        13.018676758    
 2828-71-365     1963.0000000        1951.4086914        11.591308594    
 2846-8-32       2008.0000000        2020.5377197       -12.537719727    
 2847-56-24      2005.0000000        1959.0063477        45.993652344    
 2833-1-283      2018.0000000        2037.3034668       -19.303466797    
 2821-43-27      1983.0000000        1997.5980225       -14.598022461    
 2821-48-334     1999.0000000        1985.4472656        13.552734375    
 2821-56-23      2011.0000000        1971.5484619        39.451538086    
 2821-61-54      1994.0000000        1960.6539307        33.346069336    
 2821-66-13      1953.0000000        1942.7416992        10.258300781    
 2817-1-364      2034.0000000        2049.1428223       -15.142822266    
 2805-48-334     2001.0000000        1990.1058350        10.894165039    
 2805-56-23      2012.0000000        1976.1191406        35.880859375    
 2805-61-53      1994.0000000        1964.6535645        29.346435547    
 2805-66-20      1954.0000000        1946.8508301        7.1491699219    
 2798-8-32       2025.0000000        2046.9768066       -21.976806641    
 2792-48-334     2008.0000000        2000.8271484        7.1728515625    
 2792-56-23      2019.0000000        1986.1141357        32.885864258    
 2792-61-53      2001.0000000        1973.3525391        27.647460938    
 2792-66-20      1972.0000000        1955.6190186        16.380981445    
 2820-3-338      2046.0000000        2057.5146484       -11.514648438    
 2820-6-224      2047.0000000        2057.7282715       -10.728271484    
 2820-7-11       2038.0000000        2057.0400391       -19.040039062    
 2820-12-46      2037.0000000        2050.6347656       -13.634765625    
 2820-17-19      2033.0000000        2051.5266113       -18.526611328    
 2820-22-17      2029.0000000        2050.0424805       -21.042480469    
 2820-27-32      2035.0000000        2044.2386475       -9.2386474609    
 2820-31-351     2032.0000000        2038.8295898       -6.8295898438    
 2820-37-28      2030.0000000        2024.5566406        5.4433593750    
 2820-48-334     2020.0000000        2006.9506836        13.049316406    
 2820-56-23      2034.0000000        1993.2446289        40.755371094    
 2820-60-319     2016.0000000        1978.9195557        37.080444336    
 2820-65-299     1978.0000000        1963.1562500        14.843750000    
 2820-71-365     1985.0000000        1964.2451172        20.754882812    
 2802-48-334     2023.0000000        2005.2034912        17.796508789    
 2802-56-23      2039.0000000        1994.0028076        44.997192383    
 2802-61-53      2020.0000000        1981.0980225        38.901977539    
 2802-66-20      2007.0000000        1963.9510498        43.048950195    
 2795-17-19      2040.0000000        2059.5646973       -19.564697266    
 2795-22-17      2037.0000000        2057.1228027       -20.122802734    
 2795-32-13      2041.0000000        2047.0379639       -6.0379638672    
 2795-37-345     2028.0000000        2030.1618652       -2.1618652344    
 2795-49-5       2031.0000000        2011.9680176        19.031982422    
 2795-55-343     2037.0000000        1998.2883301        38.711669922    
 2795-71-365     1992.0000000        1967.4362793        24.563720703    
 2722-61-53      2062.0000000        2015.8930664        46.106933594    
 2723-61-53      2064.0000000        2015.1647949        48.835205078    
 2723-66-20      2037.0000000        1996.8249512        40.175048828    
 2715-48-335     2064.0000000        2044.4562988        19.543701172    
 2715-56-23      2077.0000000        2030.3601074        46.639892578    
 2715-61-53      2059.0000000        2014.7012939        44.298706055    
 2715-66-20      2034.0000000        1995.9298096        38.070190430    
 2754-1-365      2084.0000000        2096.2392578       -12.239257812    
 2764-48-334     2045.0000000        2024.4381104        20.561889648    
 2764-56-23      2057.0000000        2009.9873047        47.012695312    
 2764-61-53      2040.0000000        1995.6822510        44.317749023    
 2764-66-20      2012.0000000        1978.3304443        33.669555664    
 2732-48-335     2047.0000000        2027.7749023        19.225097656    
 2732-56-20      2062.0000000        2013.2692871        48.730712891    
 2739-1-360      2087.0000000        2100.3522949       -13.352294922    
 2736-8-32       2077.0000000        2087.3759766       -10.375976562    
 2724-48-334     2054.0000000        2036.0466309        17.953369141    
 2724-56-23      2067.0000000        2021.8083496        45.191650391    
 2724-61-53      2053.0000000        2007.3797607        45.620239258    
 2724-66-20      2027.0000000        1988.8618164        38.138183594    
 2737-42-363     2008.0000000        2022.6657715       -14.665771484    
 2717-2-1        2069.0000000        2084.5529785       -15.552978516    
 2716-8-32       2057.0000000        2076.3703613       -19.370361328    
 2727-11-121     2014.0000000        2047.9262695       -33.926269531    
 2789-12-271     1861.0000000        1870.0472412       -9.0472412109    
 2696-1-364      2056.0000000        2081.1723633       -25.172363281    
 2696-6-341      2041.0000000        2074.1269531       -33.126953125    
 2696-11-334     2035.0000000        2065.6157227       -30.615722656    
 2696-16-313     2031.0000000        2065.1701660       -34.170166016    
 2696-22-34      2031.0000000        2062.5473633       -31.547363281    
 2708-48-337     1999.0000000        2019.1666260       -20.166625977    
 2708-56-19      1995.0000000        2005.1546631       -10.154663086    
 2708-66-28      1983.0000000        1973.6918945        9.3081054688    
 2701-32-43      2047.0000000        2062.5539551       -15.553955078    
 2701-42-363     2029.0000000        2036.1530762       -7.1530761719    
 2701-56-19      2055.0000000        2012.4289551        42.571044922    
 2668-42-363     2099.0000000        2049.0744629        49.925537109    
 2668-56-19      2095.0000000        2024.5338135        70.466186523    
 2668-61-52      2091.0000000        2008.3408203        82.659179688    
 2668-66-35      2087.0000000        1992.1586914        94.841308594    
 2681-8-32       2095.0000000        2109.3032227       -14.303222656    
 2678-48-335     2074.0000000        2051.4716797        22.528320312    
 2678-56-23      2096.0000000        2036.0535889        59.946411133    
 2678-61-54      2071.0000000        2020.2938232        50.706176758    
 2678-66-20      2046.0000000        2000.9562988        45.043701172    
 2690-66-55      2036.0000000        1989.1832275        46.816772461    
 2692-2-1        2090.0000000        2101.3688965       -11.368896484    
 2676-43-27      2084.0000000        2082.5239258        1.4760742188    
 2676-48-335     2082.0000000        2071.5725098        10.427490234    
 2676-56-23      2090.0000000        2052.4755859        37.524414062    
 2676-61-53      2073.0000000        2033.6879883        39.312011719    
 2676-66-13      2057.0000000        2015.1193848        41.880615234    
 2705-48-335     2072.0000000        2055.5590820        16.440917969    
 2705-56-23      2084.0000000        2038.2547607        45.745239258    
 2705-61-54      2067.0000000        2022.4353027        44.564697266    
 2705-66-18      2041.0000000        2002.8323975        38.167602539    
 2707-43-27      2068.0000000        2058.9743652        9.0256347656    
 2707-48-335     2067.0000000        2050.7663574        16.233642578    
 2707-56-23      2080.0000000        2035.2718506        44.728149414    
 2707-61-53      2062.0000000        2019.2543945        42.745605469    
 2707-66-20      2036.0000000        2000.1052246        35.894775391    
 2689-48-335     2068.0000000        2050.7868652        17.213134766    
 2689-56-20      2084.0000000        2034.5518799        49.448120117    
 2656-43-27      2089.0000000        2077.7292480        11.270751953    
 2656-48-334     2086.0000000        2067.8466797        18.153320312    
 2656-56-23      2110.0000000        2050.5129395        59.487060547    
 2656-61-53      2083.0000000        2033.3315430        49.668457031    
 2656-66-20      2058.0000000        2014.1945801        43.805419922    
 2674-33-76      2097.0000000        2103.6442871       -6.6442871094    
 2973-56-19      2361.0000000        2351.6298828        9.3701171875    
 2973-66-32      2345.0000000        2322.5810547        22.418945312    
 2973-71-56      2326.0000000        2310.2695312        15.730468750    
 2977-38-91      2353.0000000        2368.9748535       -15.974853516    
 2977-43-6       2361.0000000        2365.7834473       -4.7834472656    
 2977-48-335     2303.0000000        2364.7839355       -61.783935547    
 2977-66-32      2340.0000000        2325.8940430        14.105957031    
 2991-42-362     2218.0000000        2222.9982910       -4.9982910156    
 2991-48-334     2217.0000000        2218.7397461       -1.7397460938    
 2991-56-27      2215.0000000        2211.1921387        3.8078613281    
 2991-61-59      2212.0000000        2203.4099121        8.5900878906    
 2991-66-25      2208.0000000        2194.6699219        13.330078125    
 2991-71-57      2201.0000000        2185.7922363        15.207763672    
 2966-42-362     2195.0000000        2196.9936523       -1.9936523438    
 2932-42-362     2079.0000000        2070.2800293        8.7199707031    
 2932-48-336     2078.0000000        2062.7534180        15.246582031    
 2932-56-24      2073.0000000        2047.4844971        25.515502930    
 2914-42-357     2126.0000000        2101.4152832        24.584716797    
 2914-48-365     2119.0000000        2092.5012207        26.498779297    
 2914-55-342     2106.0000000        2072.1684570        33.831542969    
 2914-61-38      2100.0000000        2058.0629883        41.937011719    
 2914-66-40      2091.0000000        2044.3796387        46.620361328    
 2914-71-335     2076.0000000        2030.1881104        45.811889648    
 2940-55-342     2119.0000000        2107.6999512        11.300048828    
 2917-42-365     2135.0000000        2139.0637207       -4.0637207031    
 2917-48-336     2132.0000000        2131.6074219       0.39257812500    
 2917-56-26      2119.0000000        2113.4831543        5.5168457031    
 2917-61-59      2102.0000000        2100.6784668        1.3215332031    
 2917-66-27      2108.0000000        2087.8967285        20.103271484    
 2917-71-55      2097.0000000        2075.4392090        21.560791016    
 2924-42-362     2164.0000000        2177.7607422       -13.760742188    
 2930-36-43      2337.0000000        2336.4450684       0.55493164062    
 2930-56-27      2345.0000000        2316.9443359        28.055664062    
 2930-66-33      2292.0000000        2281.5004883        10.499511719    
 2930-71-56      2273.0000000        2268.6291504        4.3708496094    
 2929-42-357     2414.0000000        2402.4860840        11.513916016    
 2929-48-355     2427.0000000        2401.0808105        25.919189453    
 2929-55-342     2428.0000000        2386.7680664        41.231933594    
 2929-60-362     2395.0000000        2367.5332031        27.466796875    
 2929-66-1       2345.0000000        2335.8359375        9.1640625000    
 2929-71-335     2323.0000000        2324.8969727       -1.8969726562    
 2888-43-6       2314.0000000        2306.7670898        7.2329101562    
 2888-48-334     2312.0000000        2297.7858887        14.214111328    
 2888-56-26      2312.0000000        2278.7858887        33.214111328    
 2888-66-32      2268.0000000        2245.4091797        22.590820312    
 2888-71-56      2248.0000000        2231.1884766        16.811523438    
 2856-32-84      2310.0000000        2301.5927734        8.4072265625    
 2852-43-5       2289.0000000        2300.4948730       -11.494873047    
 2852-56-19      2286.0000000        2279.1359863        6.8640136719    
 2852-66-35      2251.0000000        2248.7360840        2.2639160156    
 2852-71-56      2229.0000000        2233.0249023       -4.0249023438    
 2869-43-8       2322.0000000        2326.9621582       -4.9621582031    
 2869-48-334     2322.0000000        2323.2353516       -1.2353515625    
 2869-56-24      2325.0000000        2307.8466797        17.153320312    
 2899-42-362     2169.0000000        2190.3786621       -21.378662109    
 2899-48-338     2165.0000000        2185.1909180       -20.190917969    
 2903-33-257     2172.0000000        2190.2114258       -18.211425781    
 2908-42-357     2149.0000000        2165.0737305       -16.073730469    
 2908-48-356     2145.0000000        2158.4951172       -13.495117188    
 2908-55-342     2130.0000000        2140.0197754       -10.019775391    
 2908-66-26      2118.0000000        2113.2805176        4.7194824219    
 2908-71-335     2103.0000000        2098.7915039        4.2084960938    
 2879-55-342     2098.0000000        2067.8781738        30.121826172    
 2879-61-40      2094.0000000        2053.9038086        40.096191406    
 2879-66-19      2087.0000000        2040.8276367        46.172363281    
 2879-71-335     2071.0000000        2025.4239502        45.576049805    
 2878-66-26      2111.0000000        2084.2241211        26.775878906    
 2878-71-335     2094.0000000        2067.8620605        26.137939453    
 2897-1-274      2168.0000000        2135.5166016        32.483398438    
 2897-6-284      2163.0000000        2133.1813965        29.818603516    
 2898-11-34      2156.0000000        2126.9602051        29.039794922    
 2898-16-361     2147.0000000        2120.9987793        26.001220703    
 2898-37-33      2120.0000000        2105.9394531        14.060546875    
 2882-43-32      2090.0000000        2063.2778320        26.722167969    
 2882-48-365     2088.0000000        2055.8525391        32.147460938    
 2882-55-342     2079.0000000        2039.1374512        39.862548828    
 2882-61-38      2073.0000000        2024.4493408        48.550659180    
 2882-66-40      2061.0000000        2011.3703613        49.629638672    
 2882-71-335     2048.0000000        2002.3144531        45.685546875    
 2870-33-274     2085.0000000        2085.0385742      -3.85742187500E-02
 2862-33-135     2110.0000000        2099.1650391        10.834960938    
 2824-66-31      2077.0000000        2029.4278564        47.572143555    
 2824-71-54      2069.0000000        2019.4602051        49.539794922    
 2807-49-5       2134.0000000        2110.1813965        23.818603516    
 2807-55-342     2112.0000000        2086.6289062        25.371093750    
 2807-71-62      2078.0000000        2037.9879150        40.012084961    
 2797-71-62      2081.0000000        2054.2912598        26.708740234    
 2845-66-35      2167.0000000        2171.3969727       -4.3969726562    
 2845-71-62      2154.0000000        2156.3703613       -2.3703613281    
 2841-1-274      2225.0000000        2225.9541016      -0.95410156250    
 2841-6-284      2221.0000000        2224.6943359       -3.6943359375    
 2841-11-34      2216.0000000        2222.3713379       -6.3713378906    
 2841-16-361     2204.0000000        2217.1306152       -13.130615234    
 2841-38-91      2174.0000000        2195.6960449       -21.696044922    
 2841-39-91      2173.0000000        2193.9941406       -20.994140625    
 2841-42-364     2172.0000000        2191.5756836       -19.575683594    
 2841-48-336     2167.0000000        2183.5854492       -16.585449219    
 2815-56-24      2141.0000000        2117.9221191        23.077880859    
 2801-33-52      2182.0000000        2172.6677246        9.3322753906    
 2844-43-6       2206.0000000        2248.7390137       -42.739013672    
 2844-48-334     2200.0000000        2238.2219238       -38.221923828    
 2844-56-19      2197.0000000        2219.9543457       -22.954345703    
 2844-66-34      2189.0000000        2189.9997559      -0.99975585938    
 2844-71-61      2232.0000000        2175.7766113        56.223388672    
 2819-56-17      2213.0000000        2204.4436035        8.5563964844    
 2825-56-19      2187.0000000        2233.3271484       -46.327148438    
 2825-66-35      2215.0000000        2205.6801758        9.3198242188    
 2794-33-62      2149.0000000        2194.9267578       -45.926757812    
 2791-42-356     2195.0000000        2172.6120605        22.387939453    
 2791-48-337     2171.0000000        2165.6682129        5.3317871094    
 2791-61-61      2160.0000000        2123.6486816        36.351318359    
 2791-66-26      2146.0000000        2107.2177734        38.782226562    
 2806-42-356     2222.0000000        2211.0771484        10.922851562    
 2806-48-337     2214.0000000        2202.6298828        11.370117188    
 2840-43-5       2293.0000000        2318.3027344       -25.302734375    
 2840-48-334     2294.0000000        2314.7578125       -20.757812500    
 2840-56-19      2291.0000000        2299.3149414       -8.3149414062    
 2840-61-56      2278.0000000        2285.6015625       -7.6015625000    
 2840-66-32      2257.0000000        2268.9868164       -11.986816406    
 2827-66-32      2236.0000000        2224.3803711        11.619628906    
 2827-71-61      2213.0000000        2204.8322754        8.1677246094    
 2813-66-26      2210.0000000        2196.3586426        13.641357422    
 2813-71-323     2178.0000000        2168.9936523        9.0063476562    
 2814-42-357     2232.0000000        2237.0446777       -5.0446777344    
 2814-55-342     2222.0000000        2213.9929199        8.0070800781    
 2814-61-35      2215.0000000        2200.3862305        14.613769531    
 2814-66-26      2200.0000000        2187.6860352        12.313964844    
 2804-42-357     2231.0000000        2238.4487305       -7.4487304688    
 2804-55-342     2222.0000000        2214.5266113        7.4733886719    
 2804-61-35      2214.0000000        2199.9970703        14.002929688    
 2804-66-26      2199.0000000        2185.2238770        13.776123047    
 2812-42-335     2311.0000000        2283.9145508        27.085449219    
 2812-48-355     2307.0000000        2274.6347656        32.365234375    
 2812-55-342     2303.0000000        2265.3010254        37.698974609    
 2812-61-35      2295.0000000        2253.5253906        41.474609375    
 2812-71-323     2247.0000000        2216.6267090        30.373291016    
 2765-42-357     2207.0000000        2194.0166016        12.983398438    
 2765-48-355     2200.0000000        2173.0681152        26.931884766    
 2765-55-342     2197.0000000        2177.3505859        19.649414062    
 2765-61-35      2192.0000000        2166.0578613        25.942138672    
 2765-66-26      2180.0000000        2154.7011719        25.298828125    
 2765-71-323     2156.0000000        2128.9924316        27.007568359    
 2728-8-69       2235.0000000        2212.5920410        22.407958984    
 2719-42-357     2193.0000000        2156.0239258        36.976074219    
 2719-48-356     2188.0000000        2147.1972656        40.802734375    
 2719-55-343     2181.0000000        2126.2204590        54.779541016    
 2726-42-357     2200.0000000        2183.1245117        16.875488281    
 2726-48-355     2193.0000000        2171.6564941        21.343505859    
 2726-55-342     2190.0000000        2162.3608398        27.639160156    
 2726-61-35      2185.0000000        2149.1091309        35.890869141    
 2726-66-26      2173.0000000        2136.3647461        36.635253906    
 2726-71-323     2151.0000000        2112.2626953        38.737304688    
 2784-71-62      2079.0000000        2052.4104004        26.589599609    
 2730-56-24      2146.0000000        2112.6459961        33.354003906    
 2730-61-54      2138.0000000        2093.4396973        44.560302734    
 2730-66-18      2121.0000000        2075.6325684        45.367431641    
 2781-16-361     2176.0000000        2178.2797852       -2.2797851562    
 2782-17-7       2174.0000000        2173.5175781       0.48242187500    
 2782-71-62      2077.0000000        2047.6335449        29.366455078    
 2762-48-338     2121.0000000        2123.8737793       -2.8737792969    
 2785-56-23      2118.0000000        2097.0837402        20.916259766    
 2785-66-19      2086.0000000        2061.3830566        24.616943359    
 2757-56-24      2116.0000000        2094.0280762        21.971923828    
 2757-66-19      2086.0000000        2057.7419434        28.258056641    
 2763-56-24      2114.0000000        2089.3093262        24.690673828    
 2763-66-19      2080.0000000        2052.8789062        27.121093750    
 2729-56-24      2122.0000000        2088.0671387        33.932861328    
 2729-66-18      2088.0000000        2049.9909668        38.009033203    
 2720-16-298     2169.0000000        2167.2731934        1.7268066406    
 2720-22-31      2162.0000000        2163.3967285       -1.3967285156    
 2706-66-35      2088.0000000        2061.3835449        26.616455078    
 2710-56-24      2141.0000000        2100.0378418        40.962158203    
 2755-56-23      2094.0000000        2067.4890137        26.510986328    
 2755-61-54      2084.0000000        2048.3107910        35.689208984    
 2755-66-18      2074.0000000        2031.4392090        42.560791016    
 2735-1-365      2237.0000000        2151.6745605        85.325439453    
 2778-33-182     2092.0000000        2094.3950195       -2.3950195312    
 2759-34-121     2105.0000000        2101.1882324        3.8117675781    
 2738-66-26      2051.0000000        2013.5819092        37.418090820    
 2738-71-348     2053.0000000        2006.4912109        46.508789062    
 2733-10-280     2107.0000000        2136.0278320       -29.027832031    
 2733-22-19      2094.0000000        2126.6628418       -32.662841797    
 2733-42-362     2087.0000000        2094.1489258       -7.1489257812    
 2733-48-362     2085.0000000        2083.3623047        1.6376953125    
 2733-55-342     2082.0000000        2063.3522949        18.647705078    
 2733-61-38      2071.0000000        2043.5620117        27.437988281    
 2733-66-40      2050.0000000        2025.9827881        24.017211914    
 2733-71-348     2045.0000000        2016.3233643        28.676635742    
 2698-49-8       2085.0000000        2077.6894531        7.3105468750    
 2698-55-342     2092.0000000        2058.2231445        33.776855469    
 2698-61-10      2091.0000000        2038.2520752        52.747924805    
 2698-71-348     2053.0000000        2012.1840820        40.815917969    
 2665-42-362     2093.0000000        2093.2822266      -0.28222656250    
 2665-48-362     2091.0000000        2080.8757324        10.124267578    
 2665-55-342     2098.0000000        2061.9125977        36.087402344    
 2665-61-4       2086.0000000        2043.0327148        42.967285156    
 2665-66-26      2056.0000000        2023.6970215        32.302978516    
 2665-71-348     2061.0000000        2015.9393311        45.060668945    
 2664-1-360      2134.0000000        2154.0124512       -20.012451172    
 2664-6-341      2125.0000000        2149.3752441       -24.375244141    
 2662-42-362     2094.0000000        2103.4089355       -9.4089355469    
 2662-48-361     2091.0000000        2091.2968750      -0.29687500000    
 2662-55-342     2094.0000000        2069.0339355        24.966064453    
 2662-71-348     2057.0000000        2021.9028320        35.097167969    
 2659-55-342     2093.0000000        2069.0339355        23.966064453    
 2659-61-11      2063.0000000        2049.1447754        13.855224609    
 2659-66-26      2057.0000000        2030.6011963        26.398803711    
 2659-71-348     2060.0000000        2021.9028320        38.097167969    
 2658-1-92       2100.0000000        2163.9472656       -63.947265625    
 2742-17-3       2141.0000000        2153.4968262       -12.496826172    
 2742-22-1       2140.0000000        2149.6315918       -9.6315917969    
 2742-38-91      2123.0000000        2126.3530273       -3.3530273438    
 2742-56-24      2107.0000000        2082.6772461        24.322753906    
 2742-61-54      2093.0000000        2062.0356445        30.964355469    
 2742-66-31      2068.0000000        2043.9255371        24.074462891    
 2742-71-62      2064.0000000        2032.8972168        31.102783203    
 2683-42-362     2093.0000000        2104.7001953       -11.700195312    
 2683-48-362     2090.0000000        2092.7539062       -2.7539062500    
 2683-55-342     2081.0000000        2071.6533203        9.3466796875    
 2683-61-32      2079.0000000        2051.3366699        27.663330078    
 2683-66-40      2053.0000000        2032.7723389        20.227661133    
 2686-1-274      2157.0000000        2165.4924316       -8.4924316406    
 2686-6-283      2150.0000000        2161.4707031       -11.470703125    
 2686-10-280     2137.0000000        2152.4926758       -15.492675781    
 2666-1-274      2111.0000000        2158.9306641       -47.930664062    
 2666-6-283      2101.0000000        2154.3642578       -53.364257812    
 2670-17-3       2140.0000000        2156.3208008       -16.320800781    
 2670-22-31      2138.0000000        2151.9418945       -13.941894531    
 2670-31-351     2129.0000000        2143.1289062       -14.128906250    
 2670-36-50      2126.0000000        2135.5595703       -9.5595703125    
 2670-42-352     2116.0000000        2120.7365723       -4.7365722656    
 2670-56-24      2108.0000000        2086.4094238        21.590576172    
 2670-61-54      2091.0000000        2066.1093750        24.890625000    
 2670-66-33      2063.0000000        2047.2657471        15.734252930    
 2670-71-62      2070.0000000        2036.8413086        33.158691406    
 2703-36-244     2194.0000000        2186.8940430        7.1059570312    
 2703-48-355     2189.0000000        2168.6772461        20.322753906    
 2703-55-343     2184.0000000        2153.5434570        30.456542969    
 2703-61-35      2180.0000000        2140.1740723        39.825927734    
 2703-66-19      2178.0000000        2126.6706543        51.329345703    
 2703-71-323     2147.0000000        2103.7473145        43.252685547    
 2680-71-61      2159.0000000        2082.4172363        76.582763672    
 2704-42-335     2188.0000000        2155.8125000        32.187500000    
 2704-48-356     2184.0000000        2147.5070801        36.492919922    
 2672-42-356     2170.0000000        2149.0241699        20.975830078    
 2672-66-33      2154.0000000        2085.6193848        68.380615234    
 2672-71-63      2142.0000000        2072.4140625        69.585937500    
 2657-42-356     2158.0000000        2157.6123047       0.38769531250    
 2657-66-33      2152.0000000        2098.9208984        53.079101562    
 2685-42-356     2197.0000000        2166.1494141        30.850585938    
 2685-48-355     2193.0000000        2158.8828125        34.117187500    
 2685-55-343     2186.0000000        2139.8588867        46.141113281    
 2685-61-35      2183.0000000        2125.8334961        57.166503906    
 2685-66-26      2173.0000000        2110.6269531        62.373046875    
 2685-71-323     2154.0000000        2094.1777344        59.822265625    
 2983-16-361     2632.0000000        2578.1125488        53.887451172    
 2983-22-31      2610.0000000        2590.8359375        19.164062500    
 2983-27-11      2618.0000000        2602.0114746        15.988525391    
 2980-43-8       2567.0000000        2576.7009277       -9.7009277344    
 2980-48-334     2581.0000000        2572.3415527        8.6584472656    
 2980-56-24      2581.0000000        2563.9448242        17.055175781    
 2990-16-361     2525.0000000        2525.7971191      -0.79711914062    
 2990-48-337     2544.0000000        2547.0368652       -3.0368652344    
 2990-56-24      2562.0000000        2536.6230469        25.376953125    
 2956-2-85       2545.0000000        2504.3171387        40.682861328    
 2956-6-284      2530.0000000        2502.0976562        27.902343750    
 2956-12-261     2511.0000000        2502.8691406        8.1308593750    
 2956-16-133     2520.0000000        2504.5869141        15.413085938    
 2956-26-124     2513.0000000        2526.9050293       -13.905029297    
 2956-37-34      2520.0000000        2519.5837402       0.41625976562    
 2956-43-5       2537.0000000        2529.6083984        7.3916015625    
 2956-48-334     2551.0000000        2525.2019043        25.798095703    
 2956-56-27      2553.0000000        2515.4985352        37.501464844    
 2956-66-35      2495.0000000        2487.5000000        7.5000000000    
 2956-71-12      2500.0000000        2468.0527344        31.947265625    
 2956-71-365     2513.0000000        2464.3178711        48.682128906    
 2931-11-62      2429.0000000        2429.0871582      -8.71582031250E-02
 2931-16-361     2420.0000000        2431.0722656       -11.072265625    
 2931-22-31      2415.0000000        2437.8334961       -22.833496094    
 2635-56-25      1731.0000000        1752.5494385       -21.549438477    
 2595-16-355     1833.0000000        1843.0407715       -10.040771484    
 2595-48-349     1721.0000000        1750.0299072       -29.029907227    
 2595-55-355     1728.0000000        1760.8800049       -32.880004883    
 2595-61-4       1733.0000000        1764.2120361       -31.212036133    
 2595-66-47      1743.0000000        1767.4223633       -24.422363281    
 2595-71-5       1753.0000000        1771.3669434       -18.366943359    
 2595-71-365     1755.0000000        1774.5303955       -19.530395508    
 2594-48-350     1725.0000000        1752.2641602       -27.264160156    
 2594-55-355     1732.0000000        1763.3859863       -31.385986328    
 2594-66-47      1746.0000000        1769.3889160       -23.388916016    
 2594-71-5       1757.0000000        1773.3464355       -16.346435547    
 2594-71-365     1760.0000000        1776.4313965       -16.431396484    
 2599-66-47      1746.0000000        1768.0050049       -22.005004883    
 2599-71-5       1756.0000000        1771.7216797       -15.721679688    
 2599-71-365     1758.0000000        1774.6302490       -16.630249023    
 2596-42-351     1713.0000000        1727.6860352       -14.686035156    
 2596-48-349     1721.0000000        1749.5935059       -28.593505859    
 2596-55-355     1728.0000000        1759.7626953       -31.762695312    
 2596-61-4       1733.0000000        1762.5189209       -29.518920898    
 2596-66-34      1742.0000000        1766.1947021       -24.194702148    
 2596-71-5       1753.0000000        1769.9177246       -16.917724609    
 2596-71-365     1755.0000000        1773.0325928       -18.032592773    
 2591-56-3       1728.0000000        1758.9968262       -30.996826172    
 2591-61-4       1732.0000000        1761.9139404       -29.913940430    
 2591-66-34      1742.0000000        1765.8414307       -23.841430664    
 2591-71-5       1753.0000000        1769.6225586       -16.622558594    
 2591-71-365     1755.0000000        1772.7232666       -17.723266602    
 2588-42-351     1710.0000000        1728.0972900       -18.097290039    
 2588-48-349     1715.0000000        1746.7609863       -31.760986328    
 2588-55-355     1722.0000000        1757.5393066       -35.539306641    
 2588-61-4       1726.0000000        1760.5999756       -34.599975586    
 2588-66-47      1736.0000000        1764.7578125       -28.757812500    
 2588-71-4       1746.0000000        1768.2478027       -22.247802734    
 2588-71-365     1749.0000000        1770.7592773       -21.759277344    
 2564-12-171     1866.0000000        1875.4195557       -9.4195556641    
 2564-16-355     1833.0000000        1844.9873047       -11.987304688    
 2564-22-37      1807.0000000        1811.6784668       -4.6784667969    
 2530-42-351     1722.0000000        1735.4711914       -13.471191406    
 2530-48-349     1730.0000000        1755.5703125       -25.570312500    
 2530-55-355     1739.0000000        1767.7309570       -28.730957031    
 2530-61-6       1743.0000000        1772.3162842       -29.316284180    
 2530-66-47      1754.0000000        1775.2839355       -21.283935547    
 2530-71-5       1764.0000000        1777.9881592       -13.988159180    
 2530-71-365     1766.0000000        1780.8811035       -14.881103516    
 2529-17-6       1844.0000000        1855.1300049       -11.130004883    
 2529-56-24      1737.0000000        1771.4548340       -34.454833984    
 2529-61-52      1742.0000000        1776.3880615       -34.388061523    
 2529-66-19      1751.0000000        1778.7153320       -27.715332031    
 2587-1-105      1880.0000000        1881.5338135       -1.5338134766    
 2587-7-3        1880.0000000        1880.5068359      -0.50683593750    
 2449-32-85      1798.0000000        1796.7917480        1.2082519531    
 2492-48-349     1742.0000000        1777.3471680       -35.347167969    
 2492-61-4       1757.0000000        1792.1069336       -35.106933594    
 2492-66-39      1766.0000000        1789.3933105       -23.393310547    
 2492-71-6       1776.0000000        1790.2503662       -14.250366211    
 2492-71-365     1779.0000000        1793.3449707       -14.344970703    
 2491-56-3       1769.0000000        1787.4692383       -18.469238281    
 2491-61-6       1771.0000000        1791.7670898       -20.767089844    
 2491-66-39      1779.0000000        1788.8874512       -9.8874511719    
 2491-71-6       1788.0000000        1790.9648438       -2.9648437500    
 2491-71-365     1789.0000000        1794.0728760       -5.0728759766    
 2450-48-349     1771.0000000        1787.5988770       -16.598876953    
 2450-55-354     1777.0000000        1798.3331299       -21.333129883    
 2450-61-4       1779.0000000        1801.8066406       -22.806640625    
 2450-66-39      1785.0000000        1796.5750732       -11.575073242    
 2450-71-6       1795.0000000        1795.7978516      -0.79785156250    
 2450-71-365     1796.0000000        1798.5275879       -2.5275878906    
 2451-48-349     1763.0000000        1785.2908936       -22.290893555    
 2451-55-355     1771.0000000        1795.2678223       -24.267822266    
 2451-61-4       1774.0000000        1799.1973877       -25.197387695    
 2451-66-27      1778.0000000        1795.3098145       -17.309814453    
 2451-71-6       1788.0000000        1795.4304199       -7.4304199219    
 2451-71-365     1790.0000000        1798.5718994       -8.5718994141    
 2442-48-348     1728.0000000        1769.2462158       -41.246215820    
 2442-56-23      1738.0000000        1782.0941162       -44.094116211    
 2442-60-319     1740.0000000        1787.0914307       -47.091430664    
 2442-66-26      1748.0000000        1787.9096680       -39.909667969    
 2442-71-11      1762.0000000        1790.7333984       -28.733398438    
 2452-12-171     1883.0000000        1895.7392578       -12.739257812    
 2452-16-314     1834.0000000        1865.7138672       -31.713867188    
 2452-32-85      1756.0000000        1773.3172607       -17.317260742    
 2452-35-53      1745.0000000        1758.3388672       -13.338867188    
 2390-42-351     1719.0000000        1755.3717041       -36.371704102    
 2390-48-349     1727.0000000        1767.8714600       -40.871459961    
 2390-55-355     1736.0000000        1780.0627441       -44.062744141    
 2390-66-47      1751.0000000        1787.5875244       -36.587524414    
 2390-71-6       1762.0000000        1787.7673340       -25.767333984    
 2390-71-365     1764.0000000        1789.3685303       -25.368530273    
 2303-42-351     1724.0000000        1764.9764404       -40.976440430    
 2303-48-349     1730.0000000        1774.4774170       -44.477416992    
 2303-55-355     1738.0000000        1785.3601074       -47.360107422    
 2303-61-4       1743.0000000        1790.8323975       -47.832397461    
 2303-66-47      1752.0000000        1792.6623535       -40.662353516    
 2303-71-6       1763.0000000        1791.8793945       -28.879394531    
 2303-71-365     1765.0000000        1793.1640625       -28.164062500    
 2417-56-24      1738.0000000        1786.8967285       -48.896728516    
 2417-61-54      1743.0000000        1791.4259033       -48.425903320    
 2411-56-24      1738.0000000        1787.2015381       -49.201538086    
 2411-61-54      1743.0000000        1791.7117920       -48.711791992    
 2259-42-352     1727.0000000        1773.9195557       -46.919555664    
 2259-56-3       1745.0000000        1801.9648438       -56.964843750    
 2296-22-38      1830.0000000        1844.1092529       -14.109252930    
 2296-42-352     1741.0000000        1776.0257568       -35.025756836    
 2296-48-350     1751.0000000        1794.4895020       -43.489501953    
 2296-55-354     1759.0000000        1804.6520996       -45.652099609    
 2296-61-6       1764.0000000        1807.8598633       -43.859863281    
 2296-66-39      1772.0000000        1802.4541016       -30.454101562    
 2296-71-6       1781.0000000        1803.3789062       -22.378906250    
 2296-71-365     1782.0000000        1806.5410156       -24.541015625    
 2302-48-350     1777.0000000        1801.6584473       -24.658447266    
 2302-55-354     1777.0000000        1811.3018799       -34.301879883    
 2302-61-6       1789.0000000        1813.2653809       -24.265380859    
 2302-66-32      1790.0000000        1805.0678711       -15.067871094    
 2302-71-6       1799.0000000        1806.6242676       -7.6242675781    
 2302-71-365     1800.0000000        1810.0952148       -10.095214844    
 2301-37-33      1770.0000000        1783.4656982       -13.465698242    
 2301-42-352     1779.0000000        1789.5993652       -10.599365234    
 2301-48-349     1792.0000000        1806.2167969       -14.216796875    
 2301-55-354     1797.0000000        1815.8985596       -18.898559570    
 2301-66-1       1802.0000000        1807.7467041       -5.7467041016    
 2301-71-6       1809.0000000        1809.4145508      -0.41455078125    
 2301-71-365     1811.0000000        1813.0743408       -2.0743408203    
 2440-55-354     1790.0000000        1804.9921875       -14.992187500    
 2440-61-6       1793.0000000        1808.9543457       -15.954345703    
 2440-65-342     1796.0000000        1800.3850098       -4.3850097656    
 2440-71-6       1808.0000000        1803.4344482        4.5655517578    
 2440-71-365     1809.0000000        1806.9151611        2.0848388672    
 2300-16-354     1887.0000000        1881.7246094        5.2753906250    
 2300-48-350     1798.0000000        1814.2814941       -16.281494141    
 2300-55-355     1805.0000000        1823.7000732       -18.700073242    
 2300-61-6       1809.0000000        1825.0777588       -16.077758789    
 2300-65-341     1808.0000000        1811.9288330       -3.9288330078    
 2300-71-7       1820.0000000        1813.3902588        6.6097412109    
 2300-71-365     1820.0000000        1815.3582764        4.6417236328    
 2220-12-311     1928.0000000        1921.4083252        6.5916748047    
 2220-16-356     1891.0000000        1889.0642090        1.9357910156    
 2220-48-350     1810.0000000        1824.1641846       -14.164184570    
 2220-55-354     1812.0000000        1831.8398438       -19.839843750    
 2220-61-7       1815.0000000        1834.1164551       -19.116455078    
 2220-66-39      1812.0000000        1813.8183594       -1.8183593750    
 2220-71-7       1827.0000000        1822.8316650        4.1683349609    
 2220-71-365     1826.0000000        1827.2460938       -1.2460937500    
 2222-55-354     1806.0000000        1829.4265137       -23.426513672    
 2222-61-6       1815.0000000        1831.2945557       -16.294555664    
 2222-65-341     1809.0000000        1814.7257080       -5.7257080078    
 2222-71-7       1822.0000000        1821.1503906       0.84960937500    
 2222-71-365     1821.0000000        1825.4035645       -4.4035644531    
 2096-48-350     1816.0000000        1832.2705078       -16.270507812    
 2096-55-354     1818.0000000        1839.1715088       -21.171508789    
 2096-61-6       1824.0000000        1840.1549072       -16.154907227    
 2096-65-343     1814.0000000        1819.7635498       -5.7635498047    
 2096-71-7       1828.0000000        1828.3049316      -0.30493164062    
 2096-71-365     1827.0000000        1833.5225830       -6.5225830078    
 2089-12-171     1917.0000000        1925.8059082       -8.8059082031    
 2089-42-352     1788.0000000        1807.6068115       -19.606811523    
 2089-48-350     1796.0000000        1820.5012207       -24.501220703    
 2089-55-354     1801.0000000        1828.8901367       -27.890136719    
 2089-61-6       1803.0000000        1829.7540283       -26.754028320    
 2089-66-55      1803.0000000        1817.0863037       -14.086303711    
 2089-71-6       1809.0000000        1821.2614746       -12.261474609    
 2089-71-365     1810.0000000        1825.5196533       -15.519653320    
 2088-42-352     1799.0000000        1812.8741455       -13.874145508    
 2088-48-350     1807.0000000        1825.4989014       -18.498901367    
 2088-55-354     1811.0000000        1833.8336182       -22.833618164    
 2088-61-6       1813.0000000        1834.0863037       -21.086303711    
 2088-66-48      1811.0000000        1818.3739014       -7.3739013672    
 2088-71-6       1818.0000000        1824.8465576       -6.8465576172    
 2088-71-365     1819.0000000        1829.3125000       -10.312500000    
 2620-61-53      1751.0000000        1773.3237305       -22.323730469    
 2620-66-28      1754.0000000        1769.9692383       -15.969238281    
 2630-1-86       1889.0000000        1883.7207031        5.2792968750    
 2615-21-353     1856.0000000        1851.5467529        4.4532470703    
 2615-27-20      1833.0000000        1825.8890381        7.1109619141    
 2615-36-64      1802.0000000        1785.8013916        16.198608398    
 2615-42-350     1766.0000000        1767.2639160       -1.2639160156    
 2618-56-23      1750.0000000        1767.0946045       -17.094604492    
 2618-61-53      1751.0000000        1771.8469238       -20.846923828    
 2618-66-28      1753.0000000        1774.7406006       -21.740600586    
 2616-1-109      1890.0000000        1889.9385986       6.14013671875E-02
 2616-7-10       1889.0000000        1892.3283691       -3.3283691406    
 2616-10-319     1878.0000000        1891.2841797       -13.284179688    
 2607-56-23      1754.0000000        1776.6451416       -22.645141602    
 2607-61-53      1751.0000000        1780.9918213       -29.991821289    
 2607-66-28      1752.0000000        1780.6579590       -28.657958984    
 2578-2-305      1903.0000000        1892.2667236        10.733276367    
 2582-1-105      1898.0000000        1895.2011719        2.7988281250    
 2577-56-23      1757.0000000        1783.9476318       -26.947631836    
 2577-61-53      1758.0000000        1788.5260010       -30.526000977    
 2577-66-28      1760.0000000        1786.0853271       -26.085327148    
 2573-56-27      1759.0000000        1785.6226807       -26.622680664    
 2553-33-188     1780.0000000        1783.4136963       -3.4136962891    
 2553-56-27      1769.0000000        1787.6373291       -18.637329102    
 2574-1-107      1894.0000000        1898.1811523       -4.1811523438    
 2580-1-109      1894.0000000        1900.5101318       -6.5101318359    
 2571-21-354     1857.0000000        1861.3103027       -4.3103027344    
 2498-37-34      1812.0000000        1792.4019775        19.598022461    
 2498-42-350     1797.0000000        1785.0957031        11.904296875    
 2519-56-23      1776.0000000        1798.8978271       -22.897827148    
 2507-48-300     1781.0000000        1788.5487061       -7.5487060547    
 2507-55-318     1786.0000000        1798.8157959       -12.815795898    
 2507-60-313     1786.0000000        1803.2518311       -17.251831055    
 2507-65-364     1792.0000000        1797.1827393       -5.1827392578    
 2507-71-350     1807.0000000        1804.5980225        2.4019775391    
 2508-48-300     1780.0000000        1788.5487061       -8.5487060547    
 2508-55-318     1782.0000000        1798.8157959       -16.815795898    
 2508-60-313     1782.0000000        1803.2518311       -21.251831055    
 2508-65-364     1788.0000000        1797.1827393       -9.1827392578    
 2508-71-350     1808.0000000        1804.5980225        3.4019775391    
 2448-56-25      1795.0000000        1809.1215820       -14.121582031    
 2448-61-52      1799.0000000        1814.6697998       -15.669799805    
 2448-66-20      1803.0000000        1806.5280762       -3.5280761719    
 2311-56-23      1817.0000000        1830.1293945       -13.129394531    
 2311-61-53      1822.0000000        1835.4077148       -13.407714844    
 2311-66-28      1823.0000000        1818.4134521        4.5865478516    
 2084-2-305      1948.0000000        1948.0891113      -8.91113281250E-02
 2099-42-352     1819.0000000        1827.1680908       -8.1680908203    
 2099-48-365     1824.0000000        1838.5107422       -14.510742188    
 2099-55-354     1826.0000000        1843.2817383       -17.281738281    
 2099-61-7       1837.0000000        1845.4223633       -8.4223632812    
 2099-65-344     1824.0000000        1816.1088867        7.8911132812    
 2099-71-365     1840.0000000        1827.0183105        12.981689453    
 2087-71-365     1825.0000000        1813.7022705        11.297729492    
 2110-71-365     1844.0000000        1837.9562988        6.0437011719    
 2040-65-364     1850.0000000        1798.4632568        51.536743164    
 2040-71-365     1864.0000000        1814.5313721        49.468627930    
 2034-65-364     1830.0000000        1824.3031006        5.6968994141    
 2034-71-12      1876.0000000        1848.0247803        27.975219727    
 2034-71-365     1838.0000000        1851.9615479       -13.961547852    
 2009-71-8       1870.0000000        1848.9099121        21.090087891    
 2009-71-365     1858.0000000        1854.4106445        3.5893554688    
 2008-71-8       1845.0000000        1842.7270508        2.2729492188    
 2008-71-365     1838.0000000        1847.8007812       -9.8007812500    
 1923-16-315     1894.0000000        1921.8018799       -27.801879883    
 1923-22-38      1884.0000000        1892.0954590       -8.0954589844    
 1923-27-24      1863.0000000        1868.5731201       -5.5731201172    
 1923-32-85      1840.0000000        1849.6873779       -9.6873779297    
 1923-36-1       1840.0000000        1840.2578125      -0.25781250000    
 1923-42-352     1841.0000000        1847.9515381       -6.9515380859    
 1923-48-348     1841.0000000        1855.3723145       -14.372314453    
 1923-55-354     1840.0000000        1860.3066406       -20.306640625    
 1923-60-323     1856.0000000        1861.8786621       -5.8786621094    
 1923-65-343     1828.0000000        1829.2406006       -1.2406005859    
 1923-71-8       1848.0000000        1855.1859131       -7.1859130859    
 1923-71-365     1844.0000000        1853.7130127       -9.7130126953    
 1914-55-354     1840.0000000        1862.5323486       -22.532348633    
 1914-61-7       1855.0000000        1862.6403809       -7.6403808594    
 1914-71-8       1848.0000000        1857.4534912       -9.4534912109    
 1919-71-8       1853.0000000        1853.6907959      -0.69079589844    
 1914-71-365     1844.0000000        1843.5958252       0.40417480469    
 1919-71-365     1847.0000000        1859.4396973       -12.439697266    
 1938-65-364     1848.0000000        1825.9742432        22.025756836    
 1960-65-364     1842.0000000        1822.7947998        19.205200195    
 1922-12-171     1950.0000000        1954.6645508       -4.6645507812    
 1922-42-352     1846.0000000        1852.0157471       -6.0157470703    
 1922-48-349     1847.0000000        1858.9426270       -11.942626953    
 1922-55-354     1846.0000000        1863.3210449       -17.321044922    
 1922-61-7       1873.0000000        1867.2893066        5.7106933594    
 1922-71-8       1884.0000000        1864.5354004        19.464599609    
 1922-71-365     1872.0000000        1848.4793701        23.520629883    
 1918-10-108     1955.0000000        1957.0311279       -2.0311279297    
 1918-66-32      1850.0000000        1830.0673828        19.932617188    
 1918-71-8       1881.0000000        1873.0692139        7.9307861328    
 1918-71-365     1866.0000000        1850.8696289        15.130371094    
 1959-71-8       1888.0000000        1861.3038330        26.696166992    
 1959-71-365     1873.0000000        1867.6323242        5.3676757812    
 1944-71-365     1882.0000000        1865.8902588        16.109741211    
 1988-35-4       1872.0000000        1864.4111328        7.5888671875    
 1908-56-18      1862.0000000        1881.7187500       -19.718750000    
 1908-66-18      1848.0000000        1870.6983643       -22.698364258    
 2638-33-46      2108.0000000        2105.3376465        2.6623535156    
 2648-35-95      2092.0000000        2094.9663086       -2.9663085938    
 2627-48-336     2088.0000000        2078.3190918        9.6809082031    
 2619-2-1        2145.0000000        2156.0712891       -11.071289062    
 2642-12-43      2100.0000000        2116.4484863       -16.448486328    
 2649-17-23      2099.0000000        2113.7214355       -14.721435547    
 2649-22-20      2098.0000000        2107.5891113       -9.5891113281    
 2649-42-363     2087.0000000        2074.0505371        12.949462891    
 2649-48-336     2084.0000000        2064.3803711        19.619628906    
 2649-56-20      2111.0000000        2047.6115723        63.388427734    
 2649-61-55      2081.0000000        2030.8232422        50.176757812    
 2628-1-365      2129.0000000        2132.0625000       -3.0625000000    
 2650-71-350     2071.0000000        2001.4322510        69.567749023    
 2655-42-362     2084.0000000        2066.7822266        17.217773438    
 2655-48-362     2083.0000000        2057.6557617        25.344238281    
 2655-55-343     2093.0000000        2042.5980225        50.401977539    
 2655-61-40      2080.0000000        2025.8134766        54.186523438    
 2655-66-55      2057.0000000        2007.9956055        49.004394531    
 2655-71-350     2061.0000000        2001.1717529        59.828247070    
 2604-61-55      2078.0000000        2043.1760254        34.823974609    
 2626-22-20      2106.0000000        2117.0009766       -11.000976562    
 2626-32-42      2110.0000000        2106.9479980        3.0520019531    
 2623-8-279      2109.0000000        2127.9953613       -18.995361328    
 2623-12-32      2110.0000000        2125.5368652       -15.536865234    
 2623-17-22      2109.0000000        2121.6640625       -12.664062500    
 2623-22-1       2104.0000000        2115.8342285       -11.834228516    
 2623-27-34      2113.0000000        2109.9011230        3.0988769531    
 2608-12-43      2113.0000000        2132.0812988       -19.081298828    
 2608-17-23      2111.0000000        2127.2749023       -16.274902344    
 2608-22-20      2105.0000000        2121.8586426       -16.858642578    
 2608-32-42      2110.0000000        2112.6381836       -2.6381835938    
 2629-3-217      2124.0000000        2116.0717773        7.9282226562    
 2606-56-26      2123.0000000        2055.5854492        67.414550781    
 2606-61-55      2120.0000000        2038.5177002        81.482299805    
 2606-66-20      2114.0000000        2023.7851562        90.214843750    
 2592-12-43      2137.0000000        2152.1140137       -15.114013672    
 2592-17-23      2133.0000000        2146.2475586       -13.247558594    
 2592-22-23      2125.0000000        2139.2971191       -14.297119141    
 2592-42-364     2123.0000000        2108.1074219        14.892578125    
 2592-48-336     2115.0000000        2097.3742676        17.625732422    
 2592-56-20      2137.0000000        2078.6442871        58.355712891    
 2592-61-55      2113.0000000        2060.4941406        52.505859375    
 2603-27-15      2121.0000000        2129.7819824       -8.7819824219    
 2603-42-362     2104.0000000        2103.8898926       0.11010742188    
 2603-48-336     2101.0000000        2093.1491699        7.8508300781    
 2603-55-343     2114.0000000        2075.2419434        38.758056641    
 2603-61-40      2099.0000000        2056.3977051        42.602294922    
 2603-65-343     2064.0000000        2037.9285889        26.071411133    
 2603-71-47      2078.0000000        2029.0692139        48.930786133    
 2603-71-350     2074.0000000        2027.9571533        46.042846680    
 2593-1-365      2142.0000000        2157.8044434       -15.804443359    
 2558-22-23      2120.0000000        2142.7277832       -22.727783203    
 2558-27-35      2127.0000000        2137.6528320       -10.652832031    
 2558-42-362     2113.0000000        2112.4304199       0.56958007812    
 2558-48-362     2109.0000000        2102.4853516        6.5146484375    
 2558-55-343     2119.0000000        2084.9533691        34.046630859    
 2558-61-40      2106.0000000        2066.6643066        39.335693359    
 2651-42-356     2169.0000000        2166.1818848        2.8181152344    
 2632-66-33      2145.0000000        2115.5661621        29.433837891    
 2632-71-63      2134.0000000        2102.6210938        31.378906250    
 2644-48-345     2173.0000000        2154.9311523        18.068847656    
 2644-71-63      2134.0000000        2094.8605957        39.139404297    
 2645-42-356     2172.0000000        2149.1354980        22.864501953    
 2645-48-345     2158.0000000        2141.2180176        16.781982422    
 2645-66-33      2144.0000000        2087.4396973        56.560302734    
 2645-71-63      2131.0000000        2074.9160156        56.083984375    
 2624-71-63      2130.0000000        2083.5517578        46.448242188    
 2609-42-365     2143.0000000        2149.1201172       -6.1201171875    
 2609-48-338     2138.0000000        2140.6835938       -2.6835937500    
 2609-56-24      2128.0000000        2120.4313965        7.5686035156    
 2609-61-54      2121.0000000        2105.1127930        15.887207031    
 2609-66-26      2103.0000000        2087.9470215        15.052978516    
 2609-71-62      2095.0000000        2076.0539551        18.946044922    
 2631-56-24      2101.0000000        2079.0014648        21.998535156    
 2631-61-54      2085.0000000        2060.5642090        24.435791016    
 2631-66-33      2058.0000000        2040.5928955        17.407104492    
 2652-17-24      2121.0000000        2145.2819824       -24.281982422    
 2652-22-19      2113.0000000        2139.2526855       -26.252685547    
 2652-27-33      2114.0000000        2132.8564453       -18.856445312    
 2652-42-362     2099.0000000        2108.7990723       -9.7990722656    
 2634-66-19      2059.0000000        2031.4908447        27.509155273    
 2633-56-23      2109.0000000        2071.2421875        37.757812500    
 2647-1-51       2132.0000000        2151.3146973       -19.314697266    
 2613-56-26      2121.0000000        2079.9223633        41.077636719    
 2622-11-34      2132.0000000        2159.0441895       -27.044189453    
 2622-17-3       2120.0000000        2151.8093262       -31.809326172    
 2622-22-25      2119.0000000        2146.0195312       -27.019531250    
 2622-27-11      2120.0000000        2139.9257812       -19.925781250    
 2622-32-46      2113.0000000        2137.5346680       -24.534667969    
 2625-42-362     2107.0000000        2114.3459473       -7.3459472656    
 2605-42-362     2114.0000000        2118.5446777       -4.5446777344    
 2605-48-362     2110.0000000        2107.0959473        2.9040527344    
 2605-55-343     2118.0000000        2086.9118652        31.088134766    
 2605-61-38      2104.0000000        2068.0524902        35.947509766    
 2605-66-49      2073.0000000        2048.3793945        24.620605469    
 2605-71-40      2077.0000000        2040.2473145        36.752685547    
 2605-71-350     2076.0000000        2038.9761963        37.023803711    
 2570-8-37       2157.0000000        2168.5983887       -11.598388672    
 2570-12-46      2145.0000000        2162.7817383       -17.781738281    
 2570-17-24      2139.0000000        2155.3417969       -16.341796875    
 2570-22-25      2125.0000000        2149.3193359       -24.319335938    
 2560-22-25      2127.0000000        2151.9230957       -24.923095703    
 2560-27-34      2126.0000000        2148.2316895       -22.231689453    
 2560-32-36      2126.0000000        2144.9016113       -18.901611328    
 2560-42-363     2116.0000000        2120.9655762       -4.9655761719    
 2545-56-20      2135.0000000        2098.3693848        36.630615234    
 2544-1-50       2178.0000000        2190.2890625       -12.289062500    
 2544-6-39       2167.0000000        2186.7839355       -19.783935547    
 2576-16-25      2150.0000000        2171.8610840       -21.861083984    
 2576-22-25      2142.0000000        2169.6188965       -27.618896484    
 2576-26-28      2140.0000000        2163.9609375       -23.960937500    
 2581-66-26      2077.0000000        2067.9169922        9.0830078125    
 2581-71-62      2076.0000000        2057.4929199        18.507080078    
 2600-17-24      2133.0000000        2163.9228516       -30.922851562    
 2600-22-25      2127.0000000        2159.2478027       -32.247802734    
 2600-27-54      2129.0000000        2154.3701172       -25.370117188    
 2600-32-36      2120.0000000        2151.4916992       -31.491699219    
 2600-38-32      2112.0000000        2136.2041016       -24.204101562    
 2600-39-32      2112.0000000        2134.2316895       -22.231689453    
 2600-48-362     2111.0000000        2115.3339844       -4.3339843750    
 2600-55-343     2114.0000000        2095.8657227        18.134277344    
 2600-61-40      2102.0000000        2078.5161133        23.483886719    
 2600-66-49      2085.0000000        2058.3996582        26.600341797    
 2600-71-40      2075.0000000        2048.9130859        26.086914062    
 2600-71-350     2092.0000000        2047.4368896        44.563110352    
 2566-66-26      2067.0000000        2064.0336914        2.9663085938    
 2562-48-335     2109.0000000        2118.8679199       -9.8679199219    
 2562-56-25      2124.0000000        2099.4448242        24.555175781    
 2543-1-2        2177.0000000        2193.3005371       -16.300537109    
 2546-7-316      2175.0000000        2193.9294434       -18.929443359    
 2546-12-46      2162.0000000        2185.8649902       -23.864990234    
 2546-17-33      2154.0000000        2176.9479980       -22.947998047    
 2546-22-25      2145.0000000        2170.8896484       -25.889648438    
 2546-27-11      2162.0000000        2168.6933594       -6.6933593750    
 2546-32-46      2144.0000000        2164.2453613       -20.245361328    
 2546-38-46      2137.0000000        2147.8134766       -10.813476562    
 2546-39-32      2139.0000000        2146.2431641       -7.2431640625    
 2546-56-25      2163.0000000        2109.9055176        53.094482422    
 2541-17-3       2147.0000000        2176.3720703       -29.372070312    
 2541-27-11      2163.0000000        2167.8044434       -4.8044433594    
 2548-42-362     2126.0000000        2134.7687988       -8.7687988281    
 2548-48-362     2120.0000000        2124.7434082       -4.7434082031    
 2548-55-347     2124.0000000        2106.1306152        17.869384766    
 2548-60-362     2111.0000000        2090.6708984        20.329101562    
 2547-66-48      2087.0000000        2073.7668457        13.233154297    
 2547-71-12      2084.0000000        2062.4272461        21.572753906    
 2547-71-350     2082.0000000        2062.1313477        19.868652344    
 2551-42-352     2126.0000000        2138.6401367       -12.640136719    
 2551-56-24      2127.0000000        2109.8896484        17.110351562    
 2551-66-26      2085.0000000        2075.5573730        9.4426269531    
 2550-42-362     2130.0000000        2143.5568848       -13.556884766    
 2550-56-24      2122.0000000        2115.5876465        6.4123535156    
 2550-61-54      2107.0000000        2101.0720215        5.9279785156    
 2550-66-26      2085.0000000        2081.6801758        3.3198242188    
 2542-22-25      2156.0000000        2181.4389648       -25.438964844    
 2542-27-54      2165.0000000        2178.4204102       -13.420410156    
 2542-66-26      2089.0000000        2083.8564453        5.1435546875    
 2552-56-24      2120.0000000        2120.4423828      -0.44238281250    
 2552-61-54      2109.0000000        2105.8259277        3.1740722656    
 2552-66-33      2092.0000000        2086.9038086        5.0961914062    
 2552-71-62      2083.0000000        2076.3686523        6.6313476562    
 2598-1-274      2210.0000000        2211.3994141       -1.3994140625    
 2598-6-284      2205.0000000        2208.5996094       -3.5996093750    
 2598-11-62      2197.0000000        2201.7346191       -4.7346191406    
 2584-12-325     2205.0000000        2207.9245605       -2.9245605469    
 2584-17-3       2190.0000000        2199.0490723       -9.0490722656    
 2584-22-31      2181.0000000        2192.8715820       -11.871582031    
 2584-27-11      2173.0000000        2186.6474609       -13.647460938    
 2540-48-357     2153.0000000        2164.1008301       -11.100830078    
 2540-55-343     2142.0000000        2149.2348633       -7.2348632812    
 2540-61-38      2135.0000000        2135.9997559      -0.99975585938    
 2540-66-59      2125.0000000        2117.4365234        7.5634765625    
 2540-71-40      2122.0000000        2109.6484375        12.351562500    
 2540-71-365     2122.0000000        2108.7392578        13.260742188    
 2597-42-335     2153.0000000        2196.4938965       -43.493896484    
 2597-48-357     2151.0000000        2186.8991699       -35.899169922    
 2597-55-343     2141.0000000        2171.8864746       -30.886474609    
 2597-61-38      2136.0000000        2160.3676758       -24.367675781    
 2597-66-59      2129.0000000        2148.8825684       -19.882568359    
 2597-71-40      2121.0000000        2136.5485840       -15.548583984    
 2597-71-365     2119.0000000        2134.6752930       -15.675292969    
 2565-48-342     2155.0000000        2193.9807129       -38.980712891    
 2575-55-343     2203.0000000        2165.6000977        37.399902344    
 2539-11-34      2244.0000000        2244.1130371      -0.11303710938    
 2539-22-79      2212.0000000        2225.7788086       -13.778808594    
 2539-32-46      2200.0000000        2210.2973633       -10.297363281    
 2539-37-34      2187.0000000        2195.6013184       -8.6013183594    
 2539-48-337     2174.0000000        2174.7746582      -0.77465820312    
 2539-60-321     2158.0000000        2149.4792480        8.5207519531    
 2539-65-299     2144.0000000        2131.3344727        12.665527344    
 2539-71-13      2144.0000000        2121.8808594        22.119140625    
 2539-71-365     2143.0000000        2120.5056152        22.494384766    
 2478-61-31      2169.0000000        2160.3229980        8.6770019531    
 2478-66-1       2150.0000000        2140.2700195        9.7299804688    
 2478-71-41      2148.0000000        2135.3920898        12.607910156    
 2478-71-365     2152.0000000        2137.7473145        14.252685547    
 2474-16-298     2273.0000000        2260.0305176        12.969482422    
 2474-22-32      2270.0000000        2253.7062988        16.293701172    
 2474-27-10      2263.0000000        2246.3093262        16.690673828    
 2531-42-362     2157.0000000        2170.4516602       -13.451660156    
 2531-48-357     2153.0000000        2162.3222656       -9.3222656250    
 2531-55-343     2141.0000000        2147.4558105       -6.4558105469    
 2531-61-38      2134.0000000        2134.0039062      -3.90625000000E-03
 2531-66-59      2123.0000000        2115.2817383        7.7182617188    
 2531-71-40      2121.0000000        2108.0627441        12.937255859    
 2531-71-365     2121.0000000        2107.3994141        13.600585938    
 2504-71-63      2155.0000000        2115.8820801        39.117919922    
 2520-71-62      2132.0000000        2103.8740234        28.125976562    
 2482-42-362     2162.0000000        2172.5883789       -10.588378906    
 2482-48-362     2150.0000000        2164.1020508       -14.102050781    
 2482-55-343     2143.0000000        2151.1582031       -8.1582031250    
 2482-61-40      2132.0000000        2137.2231445       -5.2231445312    
 2482-66-45      2121.0000000        2118.2785645        2.7214355469    
 2482-71-26      2126.0000000        2113.4704590        12.529541016    
 2482-71-365     2127.0000000        2114.6208496        12.379150391    
 2470-55-343     2152.0000000        2157.6428223       -5.6428222656    
 2470-66-45      2131.0000000        2124.7629395        6.2370605469    
 2470-71-41      2133.0000000        2120.7163086        12.283691406    
 2470-71-365     2136.0000000        2122.7141113        13.285888672    
 2473-55-343     2154.0000000        2157.6428223       -3.6428222656    
 2476-48-362     2155.0000000        2169.7031250       -14.703125000    
 2476-55-343     2151.0000000        2158.4313965       -7.4313964844    
 2476-61-32      2143.0000000        2144.8100586       -1.8100585938    
 2476-66-45      2142.0000000        2125.4973145        16.502685547    
 2476-71-41      2132.0000000        2121.5607910        10.439208984    
 2476-71-365     2135.0000000        2123.5744629        11.425537109    
 2523-37-1       2161.0000000        2174.3198242       -13.319824219    
 2512-71-62      2101.0000000        2096.7092285        4.2907714844    
 2513-17-24      2182.0000000        2202.7685547       -20.768554688    
 2513-22-25      2173.0000000        2195.7663574       -22.766357422    
 2513-26-362     2168.0000000        2192.5800781       -24.580078125    
 2487-42-355     2146.0000000        2161.7648926       -15.764892578    
 2467-12-46      2194.0000000        2219.7104492       -25.710449219    
 2467-17-3       2183.0000000        2209.6459961       -26.645996094    
 2467-22-25      2173.0000000        2201.0373535       -28.037353516    
 2467-27-54      2176.0000000        2197.9377441       -21.937744141    
 2467-32-46      2155.0000000        2189.6040039       -34.604003906    
 2467-38-32      2148.0000000        2173.5383301       -25.538330078    
 2466-2-128      2235.0000000        2237.1811523       -2.1811523438    
 2496-42-335     2150.0000000        2166.1748047       -16.174804688    
 2496-48-362     2143.0000000        2157.8200684       -14.820068359    
 2496-55-343     2132.0000000        2142.6796875       -10.679687500    
 2496-61-32      2123.0000000        2128.1791992       -5.1791992188    
 2496-66-45      2109.0000000        2109.5771484      -0.57714843750    
 2496-71-40      2113.0000000        2103.6098633        9.3901367188    
 2496-71-365     2113.0000000        2103.5666504        9.4333496094    
 2486-42-362     2150.0000000        2166.4052734       -16.405273438    
 2486-48-362     2143.0000000        2158.1259766       -15.125976562    
 2486-55-343     2133.0000000        2143.0109863       -10.010986328    
 2486-60-344     2117.0000000        2128.6166992       -11.616699219    
 2486-66-45      2110.0000000        2109.9934082       6.59179687500E-03
 2486-71-26      2111.0000000        2104.4333496        6.5666503906    
 2486-71-365     2115.0000000        2104.6401367        10.359863281    
 2499-33-95      2163.0000000        2187.3227539       -24.322753906    
 2493-66-33      2109.0000000        2105.9912109        3.0087890625    
 2490-66-45      2105.0000000        2104.9216309       7.83691406250E-02
 2490-71-26      2099.0000000        2097.9472656        1.0527343750    
 2490-71-365     2101.0000000        2097.7570801        3.2429199219    
 2538-17-24      2177.0000000        2194.2958984       -17.295898438    
 2538-22-25      2168.0000000        2188.3461914       -20.346191406    
 2538-27-47      2170.0000000        2185.0407715       -15.040771484    
 2538-32-46      2157.0000000        2178.9914551       -21.991455078    
 2538-37-34      2146.0000000        2164.4589844       -18.458984375    
 2538-42-363     2138.0000000        2151.5163574       -13.516357422    
 2538-48-338     2134.0000000        2143.9880371       -9.9880371094    
 2538-56-24      2127.0000000        2125.1284180        1.8715820312    
 2538-60-321     2116.0000000        2111.7951660        4.2048339844    
 2534-56-24      2132.0000000        2124.1784668        7.8215332031    
 2534-66-19      2100.0000000        2091.0363770        8.9636230469    
 2532-56-24      2125.0000000        2121.2751465        3.7248535156    
 2500-71-62      2105.0000000        2087.4040527        17.595947266    
 2517-48-362     2129.0000000        2139.5544434       -10.554443359    
 2517-55-343     2127.0000000        2120.8974609        6.1025390625    
 2517-61-32      2115.0000000        2106.2998047        8.7001953125    
 2517-66-40      2094.0000000        2086.7233887        7.2766113281    
 2517-71-350     2088.0000000        2076.4848633        11.515136719    
 2514-17-3       2169.0000000        2192.7241211       -23.724121094    
 2475-22-25      2153.0000000        2188.1394043       -35.139404297    
 2475-27-11      2143.0000000        2185.1940918       -42.194091797    
 2475-43-32      2135.0000000        2152.3491211       -17.349121094    
 2475-48-362     2133.0000000        2144.6328125       -11.632812500    
 2475-55-347     2130.0000000        2126.8549805        3.1450195312    
 2475-60-362     2121.0000000        2112.1989746        8.8010253906    
 2475-66-1       2097.0000000        2093.4082031        3.5917968750    
 2475-71-350     2090.0000000        2081.4770508        8.5229492188    
 2480-22-25      2178.0000000        2196.4453125       -18.445312500    
 2480-42-362     2140.0000000        2158.4799805       -18.479980469    
 2480-48-362     2136.0000000        2151.2561035       -15.256103516    
 2480-56-5       2140.0000000        2133.9382324        6.0617675781    
 2480-61-5       2134.0000000        2119.6003418        14.399658203    
 2480-66-40      2106.0000000        2100.7353516        5.2646484375    
 2480-71-26      2096.0000000        2092.2968750        3.7031250000    
 2480-71-350     2098.0000000        2092.0527344        5.9472656250    
 2471-17-3       2179.0000000        2204.8200684       -25.820068359    
 2471-27-11      2163.0000000        2193.2385254       -30.238525391    
 2536-48-362     2124.0000000        2133.9343262       -9.9343261719    
 2536-55-347     2125.0000000        2115.1696777        9.8303222656    
 2536-60-362     2113.0000000        2100.5864258        12.413574219    
 2536-66-40      2091.0000000        2080.9362793        10.063720703    
 2536-71-350     2085.0000000        2069.8127441        15.187255859    
 2528-42-362     2129.0000000        2138.8381348       -9.8381347656    
 2528-48-362     2123.0000000        2129.5988770       -6.5988769531    
 2528-55-347     2126.0000000        2111.4475098        14.552490234    
 2528-60-362     2113.0000000        2096.2253418        16.774658203    
 2528-66-48      2088.0000000        2076.8356934        11.164306641    
 2528-71-350     2082.0000000        2064.7055664        17.294433594    
 2509-17-3       2148.0000000        2187.2687988       -39.268798828    
 2509-31-351     2138.0000000        2173.5654297       -35.565429688    
 2521-42-363     2132.0000000        2139.1855469       -7.1855468750    
 2521-48-335     2126.0000000        2130.1467285       -4.1467285156    
 2521-56-25      2133.0000000        2111.4572754        21.542724609    
 2521-61-56      2117.0000000        2096.4501953        20.549804688    
 2505-56-25      2133.0000000        2114.9477539        18.052246094    
 2506-48-335     2129.0000000        2133.5517578       -4.5517578125    
 2506-56-25      2133.0000000        2114.8723145        18.127685547    
 2506-61-56      2082.0000000        2100.1147461       -18.114746094    
 2506-66-18      2092.0000000        2081.0058594        10.994140625    
 2506-71-11      2089.0000000        2069.1997070        19.800292969    
 2506-71-365     2089.0000000        2068.2167969        20.783203125    
 2488-1-357      2201.0000000        2212.9855957       -11.985595703    
 2488-7-316      2188.0000000        2208.3942871       -20.394287109    
 2488-10-283     2174.0000000        2201.1181641       -27.118164062    
 2488-17-33      2162.0000000        2190.2243652       -28.224365234    
 2488-22-25      2152.0000000        2183.0307617       -31.030761719    
 2488-27-47      2156.0000000        2181.0205078       -25.020507812    
 2488-37-27      2136.0000000        2160.9104004       -24.910400391    
 2472-1-357      2208.0000000        2215.2709961       -7.2709960938    
 2472-8-36       2189.0000000        2211.2299805       -22.229980469    
 2472-12-50      2174.0000000        2203.6474609       -29.647460938    
 2472-17-33      2162.0000000        2193.4892578       -31.489257812    
 2537-22-25      2136.0000000        2160.9519043       -24.951904297    
 2537-27-47      2145.0000000        2158.1540527       -13.154052734    
 2537-32-46      2140.0000000        2154.7924805       -14.792480469    
 2537-37-34      2138.0000000        2141.2346191       -3.2346191406    
 2537-42-363     2125.0000000        2129.8442383       -4.8442382812    
 2537-56-20      2135.0000000        2101.5432129        33.456787109    
 2497-42-363     2131.0000000        2136.5036621       -5.5036621094    
 2497-48-337     2126.0000000        2127.5361328       -1.5361328125    
 2497-56-20      2135.0000000        2109.2629395        25.737060547    
 2434-48-362     2131.0000000        2141.1437988       -10.143798828    
 2434-55-346     2132.0000000        2123.2785645        8.7214355469    
 2434-61-6       2124.0000000        2107.8417969        16.158203125    
 2434-66-48      2095.0000000        2089.3513184        5.6486816406    
 2434-71-12      2089.0000000        2077.5249023        11.475097656    
 2434-71-350     2088.0000000        2075.3676758        12.632324219    
 2355-42-362     2138.0000000        2156.9885254       -18.988525391    
 2355-48-362     2135.0000000        2148.1096191       -13.109619141    
 2355-55-343     2134.0000000        2128.8666992        5.1333007812    
 2355-61-40      2122.0000000        2112.7922363        9.2077636719    
 2355-71-47      2094.0000000        2085.7270508        8.2729492188    
 2355-71-350     2092.0000000        2082.9150391        9.0849609375    
 2428-56-38      2135.0000000        2128.2690430        6.7309570312    
 2428-66-48      2102.0000000        2096.6049805        5.3950195312    
 2428-71-5       2091.0000000        2083.0715332        7.9284667969    
 2428-71-365     2091.0000000        2082.8342285        8.1657714844    
 2433-66-48      2099.0000000        2092.9223633        6.0776367188    
 2433-71-5       2091.0000000        2077.6728516        13.327148438    
 2433-71-365     2087.0000000        2077.2448730        9.7551269531    
 2403-48-362     2122.0000000        2145.6235352       -23.623535156    
 2403-55-343     2126.0000000        2128.0566406       -2.0566406250    
 2403-66-59      2098.0000000        2094.6608887        3.3391113281    
 2403-71-47      2091.0000000        2078.3732910        12.626708984    
 2403-71-365     2090.0000000        2077.7458496        12.254150391    
 2410-66-59      2100.0000000        2096.1733398        3.8266601562    
 2410-71-47      2091.0000000        2080.4416504        10.558349609    
 2410-71-365     2090.0000000        2079.9335938        10.066406250    
 2462-8-38       2184.0000000        2206.4748535       -22.474853516    
 2464-12-50      2168.0000000        2198.8337402       -30.833740234    
 2464-17-23      2159.0000000        2189.1691895       -30.169189453    
 2464-22-23      2149.0000000        2181.3620605       -32.362060547    
 2459-42-362     2136.0000000        2149.6958008       -13.695800781    
 2459-48-362     2131.0000000        2140.6936035       -9.6936035156    
 2409-66-48      2103.0000000        2097.1049805        5.8950195312    
 2409-71-12      2092.0000000        2081.3942871        10.605712891    
 2357-12-50      2196.0000000        2218.5239258       -22.523925781    
 2357-17-35      2180.0000000        2207.9238281       -27.923828125    
 2357-22-23      2170.0000000        2198.9570312       -28.957031250    
 2357-27-34      2169.0000000        2195.1289062       -26.128906250    
 2357-37-34      2157.0000000        2174.8178711       -17.817871094    
 2357-66-48      2119.0000000        2105.7873535        13.212646484    
 2357-71-12      2085.0000000        2093.1655273       -8.1655273438    
 2357-71-365     2093.0000000        2092.6630859       0.33691406250    
 2336-61-21      2132.0000000        2121.2275391        10.772460938    
 2363-56-38      2144.0000000        2135.9448242        8.0551757812    
 2363-66-48      2121.0000000        2107.8115234        13.188476562    
 2363-71-5       2102.0000000        2095.6860352        6.3139648438    
 2363-71-365     2103.0000000        2095.6262207        7.3737792969    
 2460-22-25      2164.0000000        2191.9750977       -27.975097656    
 2460-48-362     2136.0000000        2147.8132324       -11.813232422    
 2460-55-343     2134.0000000        2130.4248047        3.5751953125    
 2460-61-20      2124.0000000        2115.5712891        8.4287109375    
 2460-66-49      2104.0000000        2097.1223145        6.8776855469    
 2460-71-41      2096.0000000        2085.9250488        10.074951172    
 2460-71-350     2094.0000000        2085.5466309        8.4533691406    
 2399-56-38      2138.0000000        2134.2109375        3.7890625000    
 2399-66-48      2114.0000000        2104.5129395        9.4870605469    
 2399-71-5       2100.0000000        2092.5131836        7.4868164062    
 2399-71-365     2099.0000000        2092.5485840        6.4514160156    
 2373-56-6       2140.0000000        2137.6591797        2.3408203125    
 2373-61-6       2129.0000000        2123.8847656        5.1152343750    
 2373-66-48      2121.0000000        2107.5305176        13.469482422    
 2373-71-12      2104.0000000        2095.9895020        8.0104980469    
 2373-71-365     2104.0000000        2096.0988770        7.9011230469    
 2356-56-38      2142.0000000        2141.2185059       0.78149414062    
 2356-66-42      2133.0000000        2112.1179199        20.882080078    
 2356-71-5       2113.0000000        2102.0959473        10.904052734    
 2356-71-365     2115.0000000        2102.4096680        12.590332031    
 2389-8-37       2225.0000000        2232.0878906       -7.0878906250    
 2389-12-38      2209.0000000        2224.5056152       -15.505615234    
 2388-17-34      2187.0000000        2213.8339844       -26.833984375    
 2388-22-25      2175.0000000        2204.7949219       -29.794921875    
 2388-32-46      2167.0000000        2193.0195312       -26.019531250    
 2388-38-32      2160.0000000        2175.9494629       -15.949462891    
 2343-12-50      2205.0000000        2226.2639160       -21.263916016    
 2343-17-35      2190.0000000        2215.3532715       -25.353271484    
 2343-22-24      2178.0000000        2206.0947266       -28.094726562    
 2343-61-21      2153.0000000        2131.0544434        21.945556641    
 2427-42-363     2149.0000000        2169.0019531       -20.001953125    
 2427-48-337     2143.0000000        2160.5974121       -17.597412109    
 2427-61-20      2124.0000000        2131.1557617       -7.1557617188    
 2427-66-31      2109.0000000        2112.6496582       -3.6496582031    
 2418-10-262     2219.0000000        2232.4099121       -13.409912109    
 2408-10-262     2234.0000000        2238.1147461       -4.1147460938    
 2431-7-316      2228.0000000        2234.8747559       -6.8747558594    
 2431-12-38      2209.0000000        2226.6196289       -17.619628906    
 2446-22-25      2182.0000000        2207.7546387       -25.754638672    
 2447-7-32       2226.0000000        2229.0224609       -3.0224609375    
 2432-7-316      2220.0000000        2232.3061523       -12.306152344    
 2432-12-33      2203.0000000        2223.9833984       -20.983398438    
 2432-22-1       2179.0000000        2204.9584961       -25.958496094    
 2432-42-363     2152.0000000        2164.6098633       -12.609863281    
 2405-16-293     2215.0000000        2220.6428223       -5.6428222656    
 2383-12-50      2224.0000000        2237.0903320       -13.090332031    
 2383-17-24      2210.0000000        2227.8601074       -17.860107422    
 2383-22-24      2199.0000000        2218.3544922       -19.354492188    
 2383-27-11      2194.0000000        2212.1979980       -18.197998047    
 2383-32-48      2181.0000000        2201.4873047       -20.487304688    
 2387-61-20      2131.0000000        2135.9038086       -4.9038085938    
 2387-66-28      2117.0000000        2117.8371582      -0.83715820312    
 2387-71-54      2115.0000000        2113.3815918        1.6184082031    
 2372-27-47      2181.0000000        2208.9357910       -27.935791016    
 2372-42-363     2156.0000000        2171.6779785       -15.677978516    
 2372-56-19      2142.0000000        2146.8923340       -4.8923339844    
 2372-71-54      2109.0000000        2109.1145020      -0.11450195312    
 2332-61-20      2135.0000000        2136.5664062       -1.5664062500    
 2332-66-28      2141.0000000        2118.7766113        22.223388672    
 2332-71-54      2112.0000000        2114.1474609       -2.1474609375    
 2437-22-24      2213.0000000        2233.8242188       -20.824218750    
 2437-27-15      2208.0000000        2227.4760742       -19.476074219    
 2437-32-48      2196.0000000        2214.9235840       -18.923583984    
 2438-12-306     2233.0000000        2242.1298828       -9.1298828125    
 2438-16-298     2223.0000000        2234.2309570       -11.230957031    
 2430-42-363     2158.0000000        2175.1354980       -17.135498047    
 2430-48-337     2145.0000000        2166.8347168       -21.834716797    
 2430-56-19      2141.0000000        2154.6679688       -13.667968750    
 2430-66-28      2118.0000000        2121.8085938       -3.8085937500    
 2430-71-54      2126.0000000        2118.8061523        7.1938476562    
 2444-10-264     2239.0000000        2248.4316406       -9.4316406250    
 2424-10-265     2235.0000000        2249.2421875       -14.242187500    
 2425-10-265     2237.0000000        2252.2951660       -15.295166016    
 2414-10-263     2232.0000000        2253.4414062       -21.441406250    
 2458-42-362     2153.0000000        2171.1979980       -18.197998047    
 2458-48-362     2143.0000000        2161.8398438       -18.839843750    
 2458-56-32      2135.0000000        2148.8464355       -13.846435547    
 2458-61-20      2125.0000000        2134.5949707       -9.5949707031    
 2458-66-49      2112.0000000        2116.2583008       -4.2583007812    
 2458-71-41      2118.0000000        2112.3974609        5.6025390625    
 2458-71-365     2118.0000000        2113.1069336        4.8930664062    
 2439-42-363     2156.0000000        2172.3015137       -16.301513672    
 2439-48-337     2148.0000000        2162.8974609       -14.897460938    
 2439-56-19      2143.0000000        2150.0683594       -7.0683593750    
 2439-61-20      2130.0000000        2136.0502930       -6.0502929688    
 2439-66-31      2114.0000000        2117.7680664       -3.7680664062    
 2415-1-52       2259.0000000        2255.4304199        3.5695800781    
 2407-27-47      2201.0000000        2220.2287598       -19.228759766    
 2407-61-20      2133.0000000        2141.4494629       -8.4494628906    
 2407-66-28      2118.0000000        2122.8435059       -4.8435058594    
 2407-71-54      2127.0000000        2120.4055176        6.5944824219    
 2402-10-263     2229.0000000        2240.5786133       -11.578613281    
 2394-56-26      2149.0000000        2161.4511719       -12.451171875    
 2394-61-61      2142.0000000        2146.9553223       -4.9553222656    
 2394-66-25      2129.0000000        2128.3310547       0.66894531250    
 2386-60-341     2130.0000000        2144.1210938       -14.121093750    
 2386-66-49      2121.0000000        2125.7578125       -4.7578125000    
 2386-71-40      2124.0000000        2123.4096680       0.59033203125    
 2386-71-365     2125.0000000        2123.8295898        1.1704101562    
 2453-27-47      2278.0000000        2251.0490723        26.950927734    
 2413-2-121      2301.0000000        2281.2912598        19.708740234    
 2412-12-304     2252.0000000        2273.5720215       -21.572021484    
 2412-16-298     2240.0000000        2265.8859863       -25.885986328    
 2412-16-364     2242.0000000        2265.7968750       -23.796875000    
 2398-1-357      2279.0000000        2284.8540039       -5.8540039062    
 2398-7-2        2288.0000000        2282.2233887        5.7766113281    
 2395-42-363     2217.0000000        2206.7370605        10.262939453    
 2395-48-337     2208.0000000        2203.5231934        4.4768066406    
 2385-42-363     2211.0000000        2204.9404297        6.0595703125    
 2385-48-362     2200.0000000        2200.5981445      -0.59814453125    
 2385-55-346     2189.0000000        2190.6193848       -1.6193847656    
 2385-61-31      2180.0000000        2175.7148438        4.2851562500    
 2385-66-1       2161.0000000        2155.8598633        5.1401367188    
 2385-71-41      2161.0000000        2154.2397461        6.7602539062    
 2385-71-365     2167.0000000        2157.9167480        9.0832519531    
 2282-12-46      2278.0000000        2283.0595703       -5.0595703125    
 2282-17-24      2263.0000000        2275.1760254       -12.176025391    
 2282-22-24      2258.0000000        2267.4663086       -9.4663085938    
 2282-32-48      2238.0000000        2241.7106934       -3.7106933594    
 2326-26-293     2237.0000000        2248.2492676       -11.249267578    
 2326-42-363     2208.0000000        2201.2770996        6.7229003906    
 2326-48-362     2194.0000000        2194.2849121      -0.28491210938    
 2326-56-33      2168.0000000        2182.5949707       -14.594970703    
 2326-61-41      2167.0000000        2167.6467285      -0.64672851562    
 2326-66-45      2152.0000000        2150.0546875        1.9453125000    
 2326-71-41      2156.0000000        2149.7060547        6.2939453125    
 2326-71-365     2160.0000000        2150.7277832        9.2722167969    
 2260-56-26      2172.0000000        2183.1608887       -11.160888672    
 2260-61-61      2161.0000000        2167.8383789       -6.8383789062    
 2260-66-25      2147.0000000        2150.8691406       -3.8691406250    
 2260-71-61      2152.0000000        2151.2299805       0.77001953125    
 2202-71-61      2133.0000000        2142.4670410       -9.4670410156    
 2127-42-335     2192.0000000        2200.6469727       -8.6469726562    
 2283-7-311      2250.0000000        2256.4758301       -6.4758300781    
 2283-17-24      2219.0000000        2241.1250000       -22.125000000    
 2283-22-24      2212.0000000        2232.2695312       -20.269531250    
 2283-27-47      2202.0000000        2223.9357910       -21.935791016    
 2283-32-48      2187.0000000        2211.1804199       -24.180419922    
 2283-35-15      2180.0000000        2200.6840820       -20.684082031    
 2291-37-32      2177.0000000        2195.3781738       -18.378173828    
 2291-48-338     2156.0000000        2174.0700684       -18.070068359    
 2291-60-321     2133.0000000        2146.2714844       -13.271484375    
 2291-71-13      2129.0000000        2126.9208984        2.0791015625    
 2291-71-365     2130.0000000        2126.5856934        3.4143066406    
 2304-7-311      2243.0000000        2250.2768555       -7.2768554688    
 2304-12-38      2229.0000000        2243.3376465       -14.337646484    
 2304-17-3       2211.0000000        2234.5493164       -23.549316406    
 2304-22-24      2202.0000000        2225.2434082       -23.243408203    
 2304-27-11      2197.0000000        2218.0334473       -21.033447266    
 2237-7-79       2255.0000000        2262.1391602       -7.1391601562    
 2237-12-38      2241.0000000        2254.1225586       -13.122558594    
 2237-17-24      2224.0000000        2244.8947754       -20.894775391    
 2237-22-24      2217.0000000        2235.7167969       -18.716796875    
 2237-27-16      2200.0000000        2227.0593262       -27.059326172    
 2218-56-34      2138.0000000        2158.6691895       -20.669189453    
 2218-66-59      2128.0000000        2130.9799805       -2.9799804688    
 2218-71-54      2128.0000000        2128.0876465      -8.76464843750E-02
 2218-71-365     2128.0000000        2127.8024902       0.19750976562    
 2212-26-349     2217.0000000        2228.5603027       -11.560302734    
 2212-42-362     2184.0000000        2187.1052246       -3.1052246094    
 2212-61-20      2151.0000000        2149.0620117        1.9379882812    
 2212-66-59      2145.0000000        2134.0058594        10.994140625    
 2212-71-54      2148.0000000        2131.8249512        16.175048828    
 2212-71-365     2148.0000000        2131.5175781        16.482421875    
 2213-56-34      2137.0000000        2160.9113770       -23.911376953    
 2213-66-59      2132.0000000        2132.8420410      -0.84204101562    
 2213-71-54      2133.0000000        2130.4245605        2.5754394531    
 2213-71-365     2133.0000000        2130.1572266        2.8427734375    
 2177-42-363     2166.0000000        2184.6909180       -18.690917969    
 2177-48-337     2168.0000000        2175.3039551       -7.3039550781    
 2177-56-19      2145.0000000        2159.0627441       -14.062744141    
 2177-66-31      2130.0000000        2130.7475586      -0.74755859375    
 2177-71-54      2106.0000000        2127.2937012       -21.293701172    
 2175-6-283      2262.0000000        2268.1059570       -6.1059570312    
 2175-12-51      2240.0000000        2257.9680176       -17.968017578    
 2175-17-24      2228.0000000        2248.5275879       -20.527587891    
 2175-22-24      2220.0000000        2238.7583008       -18.758300781    
 2175-27-47      2202.0000000        2228.1440430       -26.144042969    
 2176-56-34      2142.0000000        2159.2568359       -17.256835938    
 2176-66-59      2132.0000000        2132.5983887      -0.59838867188    
 2176-71-54      2133.0000000        2129.8916016        3.1083984375    
 2176-71-365     2133.0000000        2129.6027832        3.3972167969    
 2154-56-19      2146.0000000        2161.9499512       -15.949951172    
 2154-61-20      2142.0000000        2147.0012207       -5.0012207031    
 2154-66-28      2135.0000000        2134.2016602       0.79833984375    
 2154-71-54      2139.0000000        2133.0566406        5.9433593750    
 2232-56-26      2147.0000000        2168.7651367       -21.765136719    
 2232-61-20      2140.0000000        2154.7985840       -14.798583984    
 2232-66-25      2134.0000000        2138.7082520       -4.7082519531    
 2232-71-53      2137.0000000        2137.5791016      -0.57910156250    
 2211-56-26      2149.0000000        2168.0334473       -19.033447266    
 2211-61-20      2141.0000000        2154.4335938       -13.433593750    
 2211-66-25      2137.0000000        2139.3269043       -2.3269042969    
 2211-71-53      2141.0000000        2138.1823730        2.8176269531    
 2233-56-26      2143.0000000        2163.8315430       -20.831542969    
 2233-61-20      2139.0000000        2150.0925293       -11.092529297    
 2170-56-26      2146.0000000        2164.5004883       -18.500488281    
 2170-66-25      2135.0000000        2136.5925293       -1.5925292969    
 2131-12-290     2246.0000000        2265.7839355       -19.783935547    
 2131-56-26      2155.0000000        2169.5549316       -14.554931641    
 2131-61-61      2150.0000000        2155.9174805       -5.9174804688    
 2131-66-25      2143.0000000        2141.7895508        1.2104492188    
 2131-71-53      2148.0000000        2141.0468750        6.9531250000    
 2137-42-363     2174.0000000        2185.5776367       -11.577636719    
 2137-48-338     2172.0000000        2176.9650879       -4.9650878906    
 2137-56-24      2171.0000000        2160.4360352        10.563964844    
 2137-66-19      2140.0000000        2129.6357422        10.364257812    
 2137-71-60      2138.0000000        2124.9975586        13.002441406    
 2289-11-38      2218.0000000        2232.7512207       -14.751220703    
 2289-17-33      2195.0000000        2220.3950195       -25.395019531    
 2289-22-24      2184.0000000        2210.8603516       -26.860351562    
 2289-32-32      2180.0000000        2198.4787598       -18.478759766    
 2241-10-33      2227.0000000        2238.7111816       -11.711181641    
 2241-17-33      2199.0000000        2224.8283691       -25.828369141    
 2241-22-24      2189.0000000        2214.9807129       -25.980712891    
 2241-42-363     2164.0000000        2176.3442383       -12.344238281    
 2241-48-334     2158.0000000        2168.0800781       -10.080078125    
 2241-56-26      2149.0000000        2150.4665527       -1.4665527344    
 2241-61-21      2141.0000000        2135.8911133        5.1088867188    
 2236-1-357      2246.0000000        2250.1523438       -4.1523437500    
 2236-6-341      2242.0000000        2246.9465332       -4.9465332031    
 2236-12-59      2219.0000000        2236.8576660       -17.857666016    
 2236-16-313     2206.0000000        2226.6247559       -20.624755859    
 2236-22-32      2193.0000000        2216.1420898       -23.142089844    
 2327-71-365     2124.0000000        2103.4570312        20.542968750    
 2306-71-54      2114.0000000        2101.7824707        12.217529297    
 2306-71-365     2108.0000000        2102.1601562        5.8398437500    
 2264-56-38      2145.0000000        2143.7204590        1.2795410156    
 2264-66-48      2132.0000000        2113.2104492        18.789550781    
 2264-71-5       2111.0000000        2102.6831055        8.3168945312    
 2264-71-365     2111.0000000        2104.1831055        6.8168945312    
 2307-71-54      2110.0000000        2107.5678711        2.4321289062    
 2307-71-365     2102.0000000        2108.6809082       -6.6809082031    
 2292-56-38      2153.0000000        2136.6477051        16.352294922    
 2292-66-42      2134.0000000        2108.2324219        25.767578125    
 2293-56-38      2152.0000000        2136.3344727        15.665527344    
 2293-66-48      2131.0000000        2108.1064453        22.893554688    
 2293-71-12      2097.0000000        2095.5307617        1.4692382812    
 2293-71-365     2111.0000000        2096.3273926        14.672607422    
 2272-55-346     2143.0000000        2142.7963867       0.20361328125    
 2272-71-54      2109.0000000        2106.0769043        2.9230957031    
 2272-71-365     2100.0000000        2107.6752930       -7.6752929688    
 2268-66-3       2122.0000000        2106.7863770        15.213623047    
 2268-71-365     2107.0000000        2096.7297363        10.270263672    
 2242-56-38      2144.0000000        2137.9731445        6.0268554688    
 2242-66-48      2122.0000000        2108.0256348        13.974365234    
 2242-71-365     2100.0000000        2096.8762207        3.1237792969    
 2257-56-38      2149.0000000        2141.2038574        7.7961425781    
 2257-66-48      2135.0000000        2111.0053711        23.994628906    
 2258-56-38      2152.0000000        2140.9755859        11.024414062    
 2258-66-48      2138.0000000        2110.8139648        27.186035156    
 2187-42-362     2156.0000000        2176.5871582       -20.587158203    
 2187-48-336     2152.0000000        2168.6171875       -16.617187500    
 2187-56-5       2143.0000000        2148.0444336       -5.0444335938    
 2187-61-6       2137.0000000        2130.3513184        6.6486816406    
 2187-66-48      2121.0000000        2113.8068848        7.1931152344    
 2187-71-54      2107.0000000        2104.0942383        2.9057617188    
 2187-71-349     2100.0000000        2104.0412598       -4.0412597656    
 2234-56-38      2152.0000000        2152.3015137      -0.30151367188    
 2234-66-48      2126.0000000        2120.7675781        5.2324218750    
 2226-66-48      2127.0000000        2120.9738770        6.0261230469    
 2155-56-38      2153.0000000        2154.9296875       -1.9296875000    
 2155-66-48      2127.0000000        2122.4392090        4.5607910156    
 2333-56-38      2142.0000000        2136.0910645        5.9089355469    
 2333-66-48      2117.0000000        2108.2998047        8.7001953125    
 2308-56-38      2143.0000000        2134.8144531        8.1855468750    
 2308-66-48      2123.0000000        2107.0278320        15.972167969    
 2308-71-21      2103.0000000        2094.4223633        8.5776367188    
 2308-71-365     2104.0000000        2094.5754395        9.4245605469    
 2329-56-38      2145.0000000        2134.7097168        10.290283203    
 2329-66-48      2123.0000000        2106.9895020        16.010498047    
 2329-71-12      2098.0000000        2094.4162598        3.5837402344    
 2329-71-365     2104.0000000        2094.4196777        9.5803222656    
 2319-66-48      2133.0000000        2108.4213867        24.578613281    
 2320-56-38      2146.0000000        2136.0761719        9.9238281250    
 2320-66-48      2131.0000000        2108.1958008        22.804199219    
 2320-71-12      2108.0000000        2095.8559570        12.144042969    
 2320-71-365     2112.0000000        2096.2153320        15.784667969    
 2299-55-343     2141.0000000        2137.4592285        3.5407714844    
 2299-71-54      2096.0000000        2095.8393555       0.16064453125    
 2299-71-365     2096.0000000        2096.0581055      -5.81054687500E-02
 2274-56-38      2145.0000000        2133.9013672        11.098632812    
 2274-71-54      2106.0000000        2098.1440430        7.8559570312    
 2274-71-365     2098.0000000        2098.9394531      -0.93945312500    
 2294-56-38      2148.0000000        2134.6630859        13.336914062    
 2294-66-48      2126.0000000        2106.7858887        19.214111328    
 2294-71-12      2100.0000000        2093.8764648        6.1235351562    
 2294-71-365     2105.0000000        2094.3334961        10.666503906    
 2273-56-38      2146.0000000        2134.4423828        11.557617188    
 2273-66-48      2124.0000000        2106.4416504        17.558349609    
 2273-71-21      2104.0000000        2093.5134277        10.486572266    
 2273-71-365     2103.0000000        2093.9636230        9.0363769531    
 2284-66-42      2108.0000000        2101.6225586        6.3774414062    
 2167-1-365      2231.0000000        2246.5412598       -15.541259766    
 2167-7-310      2218.0000000        2243.0070801       -25.007080078    
 2167-11-38      2206.0000000        2236.0051270       -30.005126953    
 2183-12-50      2200.0000000        2233.7766113       -33.776611328    
 2183-17-34      2181.0000000        2222.9162598       -41.916259766    
 2183-22-23      2171.0000000        2213.2031250       -42.203125000    
 2183-32-47      2167.0000000        2201.6413574       -34.641357422    
 2183-38-32      2162.0000000        2184.7111816       -22.711181641    
 2168-42-364     2155.0000000        2177.8217773       -22.821777344    
 2243-42-364     2133.0000000        2166.4418945       -33.441894531    
 2243-56-25      2126.0000000        2134.9736328       -8.9736328125    
 2243-66-19      2074.0000000        2101.4318848       -27.431884766    
 2108-66-48      2141.0000000        2129.3164062        11.683593750    
 2109-12-50      2233.0000000        2242.5729980       -9.5729980469    
 2109-17-34      2214.0000000        2231.9602051       -17.960205078    
 2109-22-23      2204.0000000        2221.7312012       -17.731201172    
 2109-42-362     2172.0000000        2183.8642578       -11.864257812    
 2109-48-363     2170.0000000        2175.9409180       -5.9409179688    
 2109-55-346     2156.0000000        2159.5190430       -3.5190429688    
 2109-60-323     2151.0000000        2143.1875000        7.8125000000    
 2109-66-48      2144.0000000        2126.0710449        17.928955078    
 2109-71-12      2126.0000000        2119.1369629        6.8630371094    
 2109-71-349     2126.0000000        2119.2121582        6.7878417969    
 1991-7-25       2262.0000000        2268.0737305       -6.0737304688    
 1991-12-50      2243.0000000        2257.2070312       -14.207031250    
 1991-17-34      2224.0000000        2247.5004883       -23.500488281    
 1991-22-23      2214.0000000        2236.7626953       -22.762695312    
 1991-27-11      2207.0000000        2229.2346191       -22.234619141    
 1991-38-32      2199.0000000        2204.6127930       -5.6127929688    
 1991-42-365     2178.0000000        2199.3847656       -21.384765625    
 1991-48-337     2181.0000000        2193.5229492       -12.522949219    
 1991-56-25      2168.0000000        2178.4892578       -10.489257812    
 1991-60-323     2162.0000000        2162.9582520      -0.95825195312    
 2038-12-51      2244.0000000        2255.6516113       -11.651611328    
 2038-17-24      2232.0000000        2246.8850098       -14.885009766    
 2038-22-24      2223.0000000        2236.2971191       -13.297119141    
 2038-56-19      2217.0000000        2167.0314941        49.968505859    
 2122-61-21      2149.0000000        2146.7919922        2.2080078125    
 2075-56-38      2165.0000000        2166.3400879       -1.3400878906    
 2039-61-21      2161.0000000        2159.9965820        1.0034179688    
 2021-61-20      2161.0000000        2161.5061035      -0.50610351562    
 2020-61-21      2164.0000000        2160.8012695        3.1987304688    
 1987-66-48      2158.0000000        2149.9643555        8.0356445312    
 1958-42-362     2187.0000000        2204.3061523       -17.306152344    
 1958-48-362     2189.0000000        2198.7749023       -9.7749023438    
 1958-55-346     2175.0000000        2185.2124023       -10.212402344    
 1958-61-20      2168.0000000        2169.4895020       -1.4895019531    
 1958-66-1       2158.0000000        2153.9870605        4.0129394531    
 1958-71-47      2154.0000000        2149.0620117        4.9379882812    
 1958-71-349     2153.0000000        2149.1240234        3.8759765625    
 1952-12-301     2256.0000000        2261.2929688       -5.2929687500    
 1952-17-4       2237.0000000        2255.6059570       -18.605957031    
 1952-22-32      2234.0000000        2243.9179688       -9.9179687500    
 1952-27-11      2225.0000000        2235.6533203       -10.653320312    
 2107-56-26      2157.0000000        2167.1411133       -10.141113281    
 2107-61-20      2145.0000000        2153.6191406       -8.6191406250    
 2107-71-53      2148.0000000        2139.4199219        8.5800781250    
 2079-7-152      2264.0000000        2274.4387207       -10.438720703    
 2079-61-20      2145.0000000        2156.0969238       -11.096923828    
 2057-42-362     2188.0000000        2199.1018066       -11.101806641    
 2057-48-362     2181.0000000        2188.1672363       -7.1672363281    
 2057-55-346     2150.0000000        2170.5842285       -20.584228516    
 2057-61-20      2156.0000000        2156.8288574      -0.82885742188    
 2057-65-354     2147.0000000        2144.4074707        2.5925292969    
 2057-71-56      2152.0000000        2143.7519531        8.2480468750    
 2057-71-365     2152.0000000        2143.5363770        8.4636230469    
 2161-6-283      2266.0000000        2267.4934082       -1.4934082031    
 2161-10-283     2246.0000000        2259.6662598       -13.666259766    
 2161-17-24      2232.0000000        2247.9052734       -15.905273438    
 2161-22-24      2224.0000000        2238.1501465       -14.150146484    
 2161-27-47      2212.0000000        2227.6140137       -15.614013672    
 2161-32-48      2199.0000000        2215.0524902       -16.052490234    
 2161-38-32      2192.0000000        2195.6076660       -3.6076660156    
 2094-61-20      2148.0000000        2151.0146484       -3.0146484375    
 2094-66-28      2138.0000000        2138.2707520      -0.27075195312    
 2094-71-54      2143.0000000        2137.0122070        5.9877929688    
 2059-7-311      2263.0000000        2265.3632812       -2.3632812500    
 2059-12-51      2255.0000000        2258.8081055       -3.8081054688    
 2059-17-4       2229.0000000        2250.4616699       -21.461669922    
 2059-22-24      2220.0000000        2240.1791992       -20.179199219    
 2059-27-47      2219.0000000        2230.5266113       -11.526611328    
 2059-61-21      2174.0000000        2153.1574707        20.842529297    
 1989-42-365     2190.0000000        2203.4860840       -13.486083984    
 1989-56-17      2179.0000000        2179.0898438      -8.98437500000E-02
 1989-61-20      2170.0000000        2164.4599609        5.5400390625    
 1968-42-365     2192.0000000        2206.9187012       -14.918701172    
 1968-56-17      2180.0000000        2184.3850098       -4.3850097656    
 1968-61-20      2173.0000000        2169.1701660        3.8298339844    
 1937-56-17      2189.0000000        2187.7902832        1.2097167969    
 1937-61-20      2176.0000000        2172.3781738        3.6218261719    
 1937-66-27      2171.0000000        2157.1779785        13.822021484    
 2007-61-21      2165.0000000        2164.1455078       0.85449218750    
 2007-66-25      2159.0000000        2152.4655762        6.5344238281    
 1981-61-21      2168.0000000        2167.0617676       0.93823242188    
 2037-66-32      2145.0000000        2157.5148926       -12.514892578    
 2106-26-349     2227.0000000        2242.8181152       -15.818115234    
 2106-32-32      2213.0000000        2224.6286621       -11.628662109    
 2106-42-362     2192.0000000        2201.0009766       -9.0009765625    
 2106-48-362     2179.0000000        2187.2224121       -8.2224121094    
 2106-56-34      2160.0000000        2171.1894531       -11.189453125    
 2106-61-41      2151.0000000        2158.5585938       -7.5585937500    
 2106-66-54      2145.0000000        2147.2133789       -2.2133789062    
 2106-71-41      2144.0000000        2147.7878418       -3.7878417969    
 2106-71-365     2148.0000000        2147.7426758       0.25732421875    
 1951-12-51      2290.0000000        2296.9785156       -6.9785156250    
 1951-17-39      2273.0000000        2284.3457031       -11.345703125    
 1951-22-28      2266.0000000        2272.8227539       -6.8227539062    
 1951-38-354     2221.0000000        2227.7485352       -6.7485351562    
 1951-42-363     2215.0000000        2220.8178711       -5.8178710938    
 1951-48-362     2201.0000000        2208.5041504       -7.5041503906    
 1951-55-346     2181.0000000        2192.3081055       -11.308105469    
 1951-61-41      2171.0000000        2178.3769531       -7.3769531250    
 1951-66-49      2160.0000000        2166.6042480       -6.6042480469    
 1951-71-56      2163.0000000        2169.2399902       -6.2399902344    
 1951-71-365     2165.0000000        2169.8215332       -4.8215332031    
 2494-1-365      2306.0000000        2307.7880859       -1.7880859375    
 2489-22-66      2270.0000000        2261.3654785        8.6345214844    
 2489-27-87      2267.0000000        2254.0744629        12.925537109    
 2489-32-1       2263.0000000        2243.7939453        19.206054688    
 2489-33-60      2258.0000000        2239.2128906        18.787109375    
 2489-42-363     2252.0000000        2213.1052246        38.894775391    
 2489-55-349     2237.0000000        2199.4213867        37.578613281    
 2429-61-61      2229.0000000        2203.0954590        25.904541016    
 2429-66-25      2207.0000000        2182.3659668        24.634033203    
 2429-71-53      2208.0000000        2178.6054688        29.394531250    
 2457-22-65      2248.0000000        2264.1621094       -16.162109375    
 2457-26-341     2237.0000000        2256.4272461       -19.427246094    
 2457-31-335     2239.0000000        2243.4443359       -4.4443359375    
 2457-33-60      2232.0000000        2237.6218262       -5.6218261719    
 2457-42-363     2227.0000000        2210.7438965        16.256103516    
 2457-48-337     2219.0000000        2209.6325684        9.3674316406    
 2457-56-18      2213.0000000        2199.6916504        13.308349609    
 2457-61-47      2207.0000000        2185.1176758        21.882324219    
 2457-66-32      2182.0000000        2164.5627441        17.437255859    
 2457-71-14      2184.0000000        2160.2351074        23.764892578    
 2457-71-42      2182.0000000        2160.4545898        21.545410156    
 2457-71-365     2191.0000000        2163.4628906        27.537109375    
 2457-71-365     2188.0000000        2163.4628906        24.537109375    
 2426-61-61      2226.0000000        2188.0671387        37.932861328    
 2426-66-25      2191.0000000        2166.7390137        24.260986328    
 2378-22-66      2269.0000000        2276.4187012       -7.4187011719    
 2378-26-341     2254.0000000        2267.6142578       -13.614257812    
 2378-31-335     2251.0000000        2251.2331543      -0.23315429688    
 2377-7-1        2301.0000000        2297.6264648        3.3735351562    
 2377-12-92      2285.0000000        2293.0925293       -8.0925292969    
 2382-1-365      2301.0000000        2291.3476562        9.6523437500    
 2369-16-364     2258.0000000        2276.4458008       -18.445800781    
 2397-10-255     2291.0000000        2310.3261719       -19.326171875    
 2381-66-32      2184.0000000        2177.9133301        6.0866699219    
 2368-56-25      2246.0000000        2225.6914062        20.308593750    
 2368-61-48      2216.0000000        2206.6777344        9.3222656250    
 2364-56-25      2246.0000000        2224.3303223        21.669677734    
 2364-61-48      2218.0000000        2205.5217285        12.478271484    
 2364-66-24      2182.0000000        2183.6354980       -1.6354980469    
 2364-71-14      2189.0000000        2184.9086914        4.0913085938    
 2364-71-365     2205.0000000        2190.2712402        14.728759766    
 2361-56-25      2233.0000000        2219.7968750        13.203125000    
 2361-61-48      2213.0000000        2201.2216797        11.778320312    
 2361-66-24      2179.0000000        2179.8281250      -0.82812500000    
 2361-71-14      2186.0000000        2181.4233398        4.5766601562    
 2361-71-365     2200.0000000        2186.0412598        13.958740234    
 2349-42-364     2247.0000000        2230.6572266        16.342773438    
 2349-48-341     2231.0000000        2229.0969238        1.9030761719    
 2349-56-18      2229.0000000        2223.0947266        5.9052734375    
 2349-61-48      2207.0000000        2203.9316406        3.0683593750    
 2349-66-24      2174.0000000        2182.2487793       -8.2487792969    
 2349-71-14      2184.0000000        2184.3850098      -0.38500976562    
 2349-71-365     2198.0000000        2189.3972168        8.6027832031    
 2422-32-60      2288.0000000        2282.3789062        5.6210937500    
 2422-33-60      2281.0000000        2277.1347656        3.8652343750    
 2422-42-363     2283.0000000        2247.5502930        35.449707031    
 2422-48-357     2271.0000000        2248.9208984        22.079101562    
 2422-55-349     2262.0000000        2244.1467285        17.853271484    
 2422-61-3       2255.0000000        2224.8137207        30.186279297    
 2406-22-65      2281.0000000        2303.1535645       -22.153564453    
 2396-16-298     2300.0000000        2308.6442871       -8.6442871094    
 2396-22-32      2300.0000000        2304.8334961       -4.8334960938    
 2396-27-10      2326.0000000        2295.1408691        30.859130859    
 2401-22-65      2282.0000000        2301.2238770       -19.223876953    
 2376-26-341     2266.0000000        2294.4799805       -28.479980469    
 2365-22-65      2290.0000000        2300.6806641       -10.680664062    
 2365-27-4       2327.0000000        2290.8837891        36.116210938    
 2335-56-18      2237.0000000        2226.6032715        10.396728516    
 2335-60-322     2219.0000000        2207.8100586        11.189941406    
 2335-65-326     2181.0000000        2185.0688477       -4.0688476562    
 2335-71-365     2205.0000000        2193.1584473        11.841552734    
 2348-56-18      2235.0000000        2227.3593750        7.6406250000    
 2348-61-48      2211.0000000        2209.0229492        1.9770507812    
 2348-66-24      2178.0000000        2189.2878418       -11.287841797    
 2348-71-365     2205.0000000        2196.2006836        8.7993164062    
 2347-42-364     2259.0000000        2241.8276367        17.172363281    
 2347-48-337     2252.0000000        2242.0151367        9.9848632812    
 2347-56-18      2242.0000000        2236.6704102        5.3295898438    
 2347-61-48      2222.0000000        2216.7634277        5.2365722656    
 2347-66-24      2187.0000000        2194.3281250       -7.3281250000    
 2380-61-48      2240.0000000        2223.8864746        16.113525391    
 2392-61-48      2242.0000000        2223.1906738        18.809326172    
 2391-61-48      2240.0000000        2224.2399902        15.760009766    
 2391-66-25      2195.0000000        2200.9545898       -5.9545898438    
 2374-66-40      2191.0000000        2201.1440430       -10.144042969    
 2374-71-365     2221.0000000        2210.1550293        10.844970703    
 2354-16-361     2331.0000000        2341.6286621       -10.628662109    
 2353-48-274     2274.0000000        2279.8471680       -5.8471679688    
 2352-22-65      2336.0000000        2350.2299805       -14.229980469    
 2351-66-45      2366.0000000        2290.7846680        75.215332031    
 2351-71-42      2367.0000000        2288.4616699        78.538330078    
 2351-71-365     2368.0000000        2288.1892090        79.810791016    
 2341-55-348     2402.0000000        2343.8264160        58.173583984    
 2341-66-45      2396.0000000        2308.5871582        87.412841797    
 2341-71-42      2399.0000000        2305.4331055        93.566894531    
 2341-71-365     2403.0000000        2305.7915039        97.208496094    
 2350-42-355     2373.0000000        2332.3540039        40.645996094    
 2350-48-355     2372.0000000        2337.2495117        34.750488281    
 2350-55-348     2373.0000000        2332.5002441        40.499755859    
 2350-61-3       2371.0000000        2315.6682129        55.331787109    
 2350-71-42      2367.0000000        2294.6608887        72.339111328    
 2350-71-365     2368.0000000        2293.9841309        74.015869141    
 2358-48-306     2396.0000000        2361.4895020        34.510498047    
 2215-1-357      2435.0000000        2428.4833984        6.5166015625    
 2215-6-295      2429.0000000        2428.9458008       5.41992187500E-02
 2215-10-349     2430.0000000        2428.8771973        1.1228027344    
 2215-22-68      2427.0000000        2427.8845215      -0.88452148438    
 2215-31-335     2427.0000000        2413.5837402        13.416259766    
 2215-33-1       2433.0000000        2410.3002930        22.699707031    
 2215-39-60      2425.0000000        2398.0695801        26.930419922    
 2215-42-356     2425.0000000        2392.4067383        32.593261719    
 2215-48-336     2428.0000000        2394.5546875        33.445312500    
 2164-48-337     2411.0000000        2376.0129395        34.987060547    
 2164-56-24      2419.0000000        2372.3928223        46.607177734    
 2164-61-54      2410.0000000        2354.2861328        55.713867188    
 2164-66-24      2417.0000000        2333.3151855        83.684814453    
 2164-71-41      2416.0000000        2335.0000000        81.000000000    
 2135-48-337     2421.0000000        2401.2382812        19.761718750    
 2135-56-24      2428.0000000        2396.2761230        31.723876953    
 2135-61-55      2415.0000000        2378.9831543        36.016845703    
 2135-66-26      2427.0000000        2356.9008789        70.099121094    
 2135-71-42      2427.0000000        2358.7158203        68.284179688    
 2238-56-23      2443.0000000        2367.5593262        75.440673828    
 2334-22-67      2386.0000000        2406.9409180       -20.940917969    
 2334-26-349     2386.0000000        2400.7448730       -14.744873047    
 2334-33-60      2381.0000000        2384.8134766       -3.8134765625    
 2334-42-363     2387.0000000        2362.1315918        24.868408203    
 2334-48-274     2394.0000000        2367.4658203        26.534179688    
 2334-55-321     2395.0000000        2362.2023926        32.797607422    
 2334-60-319     2396.0000000        2347.0092773        48.990722656    
 2334-65-326     2388.0000000        2329.7517090        58.248291016    
 2334-71-14      2393.0000000        2325.9855957        67.014404297    
 2334-71-42      2391.0000000        2326.0517578        64.948242188    
 2334-71-365     2396.0000000        2327.1296387        68.870361328    
 2334-71-365     2387.0000000        2327.1296387        59.870361328    
 2225-55-321     2384.0000000        2344.2026367        39.797363281    
 2223-55-279     2360.0000000        2344.7241211        15.275878906    
 2223-61-47      2357.0000000        2319.4213867        37.578613281    
 2223-66-32      2375.0000000        2297.1962891        77.803710938    
 2223-71-14      2337.0000000        2298.1069336        38.893066406    
 2223-71-365     2364.0000000        2306.0971680        57.902832031    
 2224-55-321     2382.0000000        2344.8283691        37.171630859    
 2224-61-47      2358.0000000        2321.2145996        36.785400391    
 2224-66-32      2371.0000000        2298.7902832        72.209716797    
 2142-48-274     2338.0000000        2312.3623047        25.637695312    
 2150-48-306     2340.0000000        2313.7385254        26.261474609    
 2150-55-321     2336.0000000        2308.8884277        27.111572266    
 2141-48-274     2337.0000000        2310.9592285        26.040771484    
 2141-55-321     2328.0000000        2305.0471191        22.952880859    
 2141-61-47      2327.0000000        2284.5151367        42.484863281    
 2141-71-14      2313.0000000        2280.2480469        32.751953125    
 2141-71-365     2336.0000000        2283.5375977        52.462402344    
 2140-48-274     2358.0000000        2322.9130859        35.086914062    
 2140-55-321     2348.0000000        2317.6672363        30.332763672    
 2140-66-18      2338.0000000        2295.1274414        42.872558594    
 2209-27-11      2417.0000000        2397.9111328        19.088867188    
 2209-31-351     2416.0000000        2387.5205078        28.479492188    
 2209-37-343     2408.0000000        2372.7565918        35.243408203    
 2208-56-23      2417.0000000        2369.9987793        47.001220703    
 2208-60-321     2410.0000000        2352.1914062        57.808593750    
 2208-65-299     2408.0000000        2331.7111816        76.288818359    
 2208-71-32      2408.0000000        2331.6916504        76.308349609    
 2208-71-365     2407.0000000        2335.6284180        71.371582031    
 2206-48-274     2414.0000000        2372.6918945        41.308105469    
 2206-55-321     2407.0000000        2369.1037598        37.896240234    
 2206-61-47      2405.0000000        2350.2104492        54.789550781    
 2206-71-14      2394.0000000        2331.8625488        62.137451172    
 2206-71-365     2399.0000000        2335.3430176        63.656982422    
 2182-55-321     2385.0000000        2356.7199707        28.280029297    
 2174-55-279     2360.0000000        2358.1552734        1.8447265625    
 2174-60-319     2380.0000000        2335.8271484        44.172851562    
 2174-65-326     2355.0000000        2313.4873047        41.512695312    
 2174-71-14      2338.0000000        2314.4946289        23.505371094    
 2174-71-365     2373.0000000        2321.6738281        51.326171875    
 2181-55-321     2368.0000000        2358.4169922        9.5830078125    
 2181-61-47      2366.0000000        2336.9929199        29.007080078    
 2139-1-357      2407.0000000        2398.5234375        8.4765625000    
 2138-48-274     2392.0000000        2368.7524414        23.247558594    
 2138-55-321     2390.0000000        2365.9943848        24.005615234    
 2138-61-47      2391.0000000        2345.1948242        45.805175781    
 2138-66-24      2397.0000000        2323.2390137        73.760986328    
 2138-71-14      2366.0000000        2323.8471680        42.152832031    
 2138-71-365     2393.0000000        2331.6867676        61.313232422    
 2253-16-361     2366.0000000        2389.2902832       -23.290283203    
 2251-48-274     2395.0000000        2358.0800781        36.919921875    
 2251-55-321     2391.0000000        2356.9848633        34.015136719    
 2314-12-116     2371.0000000        2384.7167969       -13.716796875    
 2314-22-67      2372.0000000        2382.6921387       -10.692138672    
 2314-33-60      2367.0000000        2355.6896973        11.310302734    
 2290-7-322      2357.0000000        2384.5432129       -27.543212891    
 2290-10-32      2363.0000000        2380.5620117       -17.562011719    
 2290-42-364     2348.0000000        2324.9694824        23.030517578    
 2290-48-355     2356.0000000        2333.3591309        22.640869141    
 2290-55-348     2378.0000000        2331.5200195        46.479980469    
 2290-65-354     2361.0000000        2289.8701172        71.129882812    
 2290-71-42      2379.0000000        2289.9851074        89.014892578    
 2290-71-365     2357.0000000        2293.8437500        63.156250000    
 2286-42-357     2345.0000000        2328.7819824        16.218017578    
 2286-48-355     2344.0000000        2336.0446777        7.9553222656    
 2286-61-3       2351.0000000        2313.7465820        37.253417969    
 2286-66-45      2371.0000000        2293.6503906        77.349609375    
 2287-42-357     2358.0000000        2326.8117676        31.188232422    
 2287-61-3       2363.0000000        2313.1896973        49.810302734    
 2287-71-42      2383.0000000        2291.7541504        91.245849609    
 2287-71-365     2360.0000000        2296.1210938        63.878906250    
 2278-22-67      2363.0000000        2379.6777344       -16.677734375    
 2278-26-362     2379.0000000        2371.2619629        7.7380371094    
 2278-31-335     2357.0000000        2354.3842773        2.6157226562    
 2278-33-60      2364.0000000        2347.8083496        16.191650391    
 2278-48-274     2365.0000000        2329.2104492        35.789550781    
 2129-66-40      2194.0000000        2236.7714844       -42.771484375    
 2129-71-42      2229.0000000        2246.0800781       -17.080078125    
 2129-71-365     2235.0000000        2248.5319824       -13.531982422    
 2146-7-1        2375.0000000        2371.8093262        3.1906738281    
 2146-11-86      2363.0000000        2372.0600586       -9.0600585938    
 2146-22-67      2347.0000000        2360.3579102       -13.357910156    
 2146-37-263     2287.0000000        2303.3308105       -16.330810547    
 2147-42-363     2279.0000000        2288.1586914       -9.1586914062    
 2147-48-362     2265.0000000        2283.9287109       -18.928710938    
 2147-55-349     2260.0000000        2280.2539062       -20.253906250    
 2145-2-132      2385.0000000        2377.5256348        7.4743652344    
 2144-2-132      2390.0000000        2385.0439453        4.9560546875    
 2126-48-274     2297.0000000        2318.8408203       -21.840820312    
 2126-55-321     2282.0000000        2314.9069824       -32.906982422    
 2126-61-47      2279.0000000        2292.9040527       -13.904052734    
 2126-71-14      2274.0000000        2281.5539551       -7.5539550781    
 2126-71-365     2290.0000000        2286.4443359        3.5556640625    
 2315-10-262     2351.0000000        2362.4504395       -11.450439453    
 2288-10-262     2361.0000000        2367.2028809       -6.2028808594    
 2248-56-23      2268.0000000        2284.0190430       -16.019042969    
 2239-16-361     2347.0000000        2358.1601562       -11.160156250    
 2239-22-32      2337.0000000        2358.0581055       -21.058105469    
 2239-27-10      2328.0000000        2346.0183105       -18.018310547    
 2239-56-23      2274.0000000        2287.8996582       -13.899658203    
 2267-56-25      2257.0000000        2261.2795410       -4.2795410156    
 2255-22-65      2326.0000000        2346.2463379       -20.246337891    
 2255-32-60      2302.0000000        2307.9082031       -5.9082031250    
 2255-38-60      2294.0000000        2282.0839844        11.916015625    
 2240-56-25      2269.0000000        2288.8874512       -19.887451172    
 2240-66-32      2195.0000000        2242.0029297       -47.002929688    
 2240-71-54      2245.0000000        2244.9924316       7.56835937500E-03
 2114-61-49      2224.0000000        2246.3168945       -22.316894531    
 2114-66-40      2195.0000000        2229.7202148       -34.720214844    
 2114-71-42      2225.0000000        2237.9655762       -12.965576172    
 2114-71-365     2238.0000000        2242.6435547       -4.6435546875    
 2191-56-23      2242.0000000        2270.1748047       -28.174804688    
 2191-61-61      2224.0000000        2248.7204590       -24.720458984    
 2191-66-25      2194.0000000        2229.9746094       -35.974609375    
 2210-48-334     2283.0000000        2293.7995605       -10.799560547    
 2210-55-321     2270.0000000        2291.8588867       -21.858886719    
 2210-61-47      2259.0000000        2268.6020508       -9.6020507812    
 2210-66-24      2229.0000000        2248.6618652       -19.661865234    
 2210-71-42      2225.0000000        2254.5361328       -29.536132812    
 2210-71-365     2238.0000000        2260.7543945       -22.754394531    
 2162-48-274     2254.0000000        2265.5810547       -11.581054688    
 2162-65-354     2184.0000000        2221.4001465       -37.400146484    
 2162-71-42      2213.0000000        2231.8044434       -18.804443359    
 2162-71-365     2224.0000000        2235.5617676       -11.561767578    
 2298-61-48      2210.0000000        2215.6186523       -5.6186523438    
 2298-66-24      2176.0000000        2196.4831543       -20.483154297    
 2298-71-14      2191.0000000        2199.1791992       -8.1791992188    
 2298-71-365     2205.0000000        2204.1127930       0.88720703125    
 2250-22-69      2301.0000000        2305.4299316       -4.4299316406    
 2250-27-61      2307.0000000        2293.8295898        13.170410156    
 2227-42-363     2240.0000000        2229.1740723        10.825927734    
 2227-48-365     2217.0000000        2221.1311035       -4.1311035156    
 2227-55-349     2199.0000000        2215.4079590       -16.407958984    
 2227-61-54      2174.0000000        2194.9785156       -20.978515625    
 2227-66-45      2151.0000000        2178.9094238       -27.909423828    
 2227-71-49      2170.0000000        2185.9943848       -15.994384766    
 2227-71-365     2178.0000000        2187.9992676       -9.9992675781    
 2152-22-68      2316.0000000        2318.7172852       -2.7172851562    
 2263-10-144     2292.0000000        2292.0048828      -4.88281250000E-03
 2276-22-61      2265.0000000        2274.2788086       -9.2788085938    
 2276-26-301     2254.0000000        2264.9064941       -10.906494141    
 2276-48-362     2208.0000000        2207.5583496       0.44165039062    
 2276-55-349     2193.0000000        2199.1835938       -6.1835937500    
 2276-61-33      2176.0000000        2181.6611328       -5.6611328125    
 2276-66-32      2153.0000000        2163.1179199       -10.117919922    
 2276-71-14      2154.0000000        2165.8066406       -11.806640625    
 2276-71-41      2163.0000000        2165.6877441       -2.6877441406    
 2276-71-365     2168.0000000        2166.9953613        1.0046386719    
 2276-71-365     2168.0000000        2166.9953613        1.0046386719    
 2229-61-33      2163.0000000        2182.4086914       -19.408691406    
 2229-66-32      2144.0000000        2165.6018066       -21.601806641    
 2229-71-14      2160.0000000        2171.4660645       -11.466064453    
 2229-71-41      2160.0000000        2171.4111328       -11.411132812    
 2229-71-365     2165.0000000        2172.6481934       -7.6481933594    
 2229-71-365     2165.0000000        2172.6481934       -7.6481933594    
 2235-42-335     2226.0000000        2216.2797852        9.7202148438    
 2130-8-49       2299.0000000        2298.9194336       8.05664062500E-02
 2130-12-58      2285.0000000        2292.1320801       -7.1320800781    
 2130-17-87      2271.0000000        2282.9377441       -11.937744141    
 2130-22-79      2267.0000000        2271.3037109       -4.3037109375    
 2130-32-60      2246.0000000        2244.0683594        1.9316406250    
 2130-42-363     2218.0000000        2212.4028320        5.5971679688    
 2130-48-362     2201.0000000        2200.5556641       0.44433593750    
 2153-48-362     2195.0000000        2200.4064941       -5.4064941406    
 2153-55-349     2174.0000000        2190.3808594       -16.380859375    
 2153-61-33      2157.0000000        2173.7539062       -16.753906250    
 2153-71-41      2153.0000000        2163.6115723       -10.611572266    
 2153-71-365     2157.0000000        2163.9921875       -6.9921875000    
 2217-66-32      2149.0000000        2172.1523438       -23.152343750    
 2231-22-65      2279.0000000        2283.9753418       -4.9753417969    
 2231-42-363     2229.0000000        2219.3496094        9.6503906250    
 2231-48-362     2209.0000000        2210.2250977       -1.2250976562    
 2231-55-349     2193.0000000        2204.1174316       -11.117431641    
 2231-61-54      2170.0000000        2184.2453613       -14.245361328    
 2231-66-49      2150.0000000        2167.1884766       -17.188476562    
 2231-71-41      2166.0000000        2173.7429199       -7.7429199219    
 2231-71-365     2172.0000000        2174.8637695       -2.8637695312    
 2228-42-363     2226.0000000        2219.6606445        6.3393554688    
 2228-48-362     2207.0000000        2210.4467773       -3.4467773438    
 2228-55-349     2190.0000000        2204.3574219       -14.357421875    
 2228-61-54      2167.0000000        2184.4755859       -17.475585938    
 2228-66-49      2146.0000000        2167.6113281       -21.611328125    
 2228-71-41      2163.0000000        2174.2370605       -11.237060547    
 2228-71-365     2169.0000000        2175.5124512       -6.5124511719    
 2056-12-58      2310.0000000        2310.4770508      -0.47705078125    
 2056-22-66      2295.0000000        2290.6059570        4.3940429688    
 2056-27-61      2284.0000000        2277.6193848        6.3806152344    
 2032-7-32       2315.0000000        2310.1157227        4.8842773438    
 2032-12-58      2298.0000000        2303.5495605       -5.5495605469    
 2032-32-83      2257.0000000        2252.0915527        4.9084472656    
 2033-42-363     2223.0000000        2217.7966309        5.2033691406    
 2033-48-362     2197.0000000        2202.2006836       -5.2006835938    
 2033-56-34      2161.0000000        2188.9533691       -27.953369141    
 2033-61-56      2153.0000000        2173.3747559       -20.374755859    
 2033-66-54      2142.0000000        2161.5158691       -19.515869141    
 2033-71-49      2159.0000000        2172.0742188       -13.074218750    
 2033-71-365     2161.0000000        2172.6901855       -11.690185547    
 2000-37-34      2238.0000000        2233.5434570        4.4565429688    
 2000-55-349     2170.0000000        2189.3132324       -19.313232422    
 2004-48-357     2201.0000000        2205.6479492       -4.6479492188    
 2004-71-49      2165.0000000        2174.5913086       -9.5913085938    
 2004-71-365     2168.0000000        2175.4665527       -7.4665527344    
 2019-17-82      2303.0000000        2304.4523926       -1.4523925781    
 2019-22-69      2296.0000000        2293.4121094        2.5878906250    
 2019-42-335     2229.0000000        2222.3723145        6.6276855469    
 2019-48-365     2203.0000000        2206.1169434       -3.1169433594    
 2019-66-40      2144.0000000        2167.4709473       -23.470947266    
 2019-71-49      2164.0000000        2180.3791504       -16.379150391    
 2019-71-365     2169.0000000        2181.3930664       -12.393066406    
 2015-66-40      2141.0000000        2167.9128418       -26.912841797    
 2015-71-49      2161.0000000        2180.0266113       -19.026611328    
 2015-71-365     2166.0000000        2181.0842285       -15.084228516    
 2023-42-363     2228.0000000        2222.7875977        5.2124023438    
 2023-48-365     2202.0000000        2207.6008301       -5.6008300781    
 2023-55-349     2167.0000000        2195.2036133       -28.203613281    
 2023-61-54      2153.0000000        2178.7277832       -25.727783203    
 2023-71-49      2161.0000000        2180.6342773       -19.634277344    
 2023-71-365     2166.0000000        2181.6550293       -15.655029297    
 2060-48-365     2222.0000000        2224.2341309       -2.2341308594    
 2060-55-356     2188.0000000        2215.2424316       -27.242431641    
 2060-61-54      2164.0000000        2195.5534668       -31.553466797    
 2060-66-19      2151.0000000        2187.9938965       -36.993896484    
 2060-71-42      2177.0000000        2204.3215332       -27.321533203    
 2060-71-365     2185.0000000        2206.1455078       -21.145507812    
 2115-22-66      2303.0000000        2305.5217285       -2.5217285156    
 2105-42-363     2241.0000000        2225.3325195        15.667480469    
 2105-48-362     2214.0000000        2213.4855957       0.51440429688    
 2105-56-33      2183.0000000        2206.7312012       -23.731201172    
 2105-61-33      2164.0000000        2187.1938477       -23.193847656    
 2105-66-32      2144.0000000        2175.4384766       -31.438476562    
 2105-71-42      2167.0000000        2189.1740723       -22.174072266    
 2105-71-365     2174.0000000        2190.6145020       -16.614501953    
 2098-65-354     2136.0000000        2175.9187012       -39.918701172    
 2098-71-42      2167.0000000        2189.4187012       -22.418701172    
 2098-71-365     2174.0000000        2191.0000000       -17.000000000    
 2103-42-363     2240.0000000        2223.9023438        16.097656250    
 2103-48-362     2214.0000000        2211.9057617        2.0942382812    
 2103-61-33      2163.0000000        2185.7509766       -22.750976562    
 2103-66-32      2143.0000000        2173.9575195       -30.957519531    
 2103-71-42      2166.0000000        2187.6992188       -21.699218750    
 2103-71-365     2173.0000000        2189.0290527       -16.029052734    
 2055-22-66      2304.0000000        2309.2099609       -5.2099609375    
 2055-32-83      2278.0000000        2271.5312500        6.4687500000    
 2014-12-66      2336.0000000        2335.8032227       0.19677734375    
 2014-22-69      2316.0000000        2316.6303711      -0.63037109375    
 2014-27-3       2305.0000000        2302.2692871        2.7307128906    
 2014-42-363     2244.0000000        2225.5510254        18.448974609    
 2014-48-357     2217.0000000        2210.1770020        6.8229980469    
 2014-66-19      2145.0000000        2178.1274414       -33.127441406    
 2014-71-42      2170.0000000        2198.3327637       -28.332763672    
 2014-71-365     2177.0000000        2199.3454590       -22.345458984    
 2013-42-363     2241.0000000        2228.7619629        12.238037109    
 2013-48-357     2214.0000000        2213.1857910       0.81420898438    
 2013-55-350     2174.0000000        2200.6738281       -26.673828125    
 2013-61-33      2152.0000000        2183.0510254       -31.051025391    
 2013-66-19      2142.0000000        2179.6850586       -37.685058594    
 2013-71-42      2167.0000000        2198.6184082       -31.618408203    
 2013-71-365     2174.0000000        2199.9050293       -25.905029297    
 1974-22-79      2318.0000000        2316.0505371        1.9494628906    
 1974-26-307     2301.0000000        2303.5593262       -2.5593261719    
 1974-42-363     2246.0000000        2227.9890137        18.010986328    
 1974-48-357     2218.0000000        2209.8469238        8.1530761719    
 1966-42-363     2245.0000000        2229.4255371        15.574462891    
 1966-48-350     2223.0000000        2211.1845703        11.815429688    
 1966-55-350     2165.0000000        2190.7487793       -25.748779297    
 1966-61-33      2154.0000000        2176.1889648       -22.188964844    
 1966-66-19      2145.0000000        2177.2819824       -32.281982422    
 1966-71-49      2171.0000000        2197.5690918       -26.569091797    
 1966-71-365     2177.0000000        2198.9531250       -21.953125000    
 1972-71-49      2170.0000000        2199.8117676       -29.811767578    
 1972-71-365     2176.0000000        2201.3613281       -25.361328125    
 2036-11-305     2344.0000000        2360.5495605       -16.549560547    
 2035-48-365     2231.0000000        2249.3122559       -18.312255859    
 2035-56-18      2185.0000000        2235.9074707       -50.907470703    
 2035-61-54      2162.0000000        2217.5517578       -55.551757812    
 2035-66-45      2155.0000000        2215.0935059       -60.093505859    
 2035-71-42      2184.0000000        2228.6103516       -44.610351562    
 2035-71-365     2192.0000000        2230.6074219       -38.607421875    
 1999-22-69      2326.0000000        2327.0495605       -1.0495605469    
 1999-26-349     2314.0000000        2314.2189941      -0.21899414062    
 1999-32-73      2299.0000000        2292.6462402        6.3537597656    
 1999-42-363     2250.0000000        2246.8105469        3.1894531250    
 1999-48-357     2223.0000000        2229.0249023       -6.0249023438    
 1999-55-353     2185.0000000        2212.0795898       -27.079589844    
 1999-60-309     2168.0000000        2194.9526367       -26.952636719    
 1999-66-28      2150.0000000        2193.7561035       -43.756103516    
 1999-71-42      2176.0000000        2210.6354980       -34.635498047    
 1999-71-365     2184.0000000        2212.7160645       -28.716064453    
 1957-12-66      2349.0000000        2350.2751465       -1.2751464844    
 1957-22-79      2326.0000000        2328.2744141       -2.2744140625    
 1957-27-3       2317.0000000        2316.0217285       0.97827148438    
 1957-32-60      2301.0000000        2294.8481445        6.1518554688    
 1957-42-363     2251.0000000        2249.7844238        1.2155761719    
 1957-48-357     2224.0000000        2229.2373047       -5.2373046875    
 1957-55-353     2183.0000000        2208.0583496       -25.058349609    
 1957-60-306     2159.0000000        2191.6945801       -32.694580078    
 1957-66-19      2149.0000000        2195.2236328       -46.223632812    
 1957-71-42      2176.0000000        2212.3500977       -36.350097656    
 1957-71-365     2183.0000000        2214.6093750       -31.609375000    
 2125-48-306     2306.0000000        2313.6313477       -7.6313476562    
 2125-55-321     2297.0000000        2310.1186523       -13.118652344    
 2086-48-274     2286.0000000        2289.0971680       -3.0971679688    
 2086-56-48      2275.0000000        2279.7932129       -4.7932128906    
 2086-61-47      2260.0000000        2260.5930176      -0.59301757812    
 2086-66-26      2236.0000000        2255.1027832       -19.102783203    
 2086-71-14      2266.0000000        2263.1232910        2.8767089844    
 2086-71-365     2276.0000000        2265.9572754        10.042724609    
 2102-26-349     2337.0000000        2348.9025879       -11.902587891    
 2102-48-274     2272.0000000        2284.9580078       -12.958007812    
 2102-55-321     2250.0000000        2277.3889160       -27.388916016    
 2102-60-319     2236.0000000        2256.9545898       -20.954589844    
 2102-66-1       2213.0000000        2247.5251465       -34.525146484    
 2102-71-42      2243.0000000        2256.3476562       -13.347656250    
 2102-71-365     2253.0000000        2258.8481445       -5.8481445312    
 2054-39-31      2277.0000000        2295.3098145       -18.309814453    
 2054-48-357     2251.0000000        2267.7641602       -16.764160156    
 2054-55-349     2217.0000000        2257.5329590       -40.532958984    
 2054-61-3       2190.0000000        2238.2780762       -48.278076172    
 2054-66-40      2178.0000000        2235.9052734       -57.905273438    
 2054-71-42      2206.0000000        2246.4575195       -40.457519531    
 2054-71-365     2214.0000000        2248.6079102       -34.607910156    
 2063-22-69      2354.0000000        2367.1965332       -13.196533203    
 1996-11-86      2369.0000000        2372.8107910       -3.8107910156    
 1997-22-60      2344.0000000        2350.9885254       -6.9885253906    
 1997-32-60      2306.0000000        2318.0773926       -12.077392578    
 1997-55-349     2199.0000000        2241.7795410       -42.779541016    
 1997-65-354     2163.0000000        2227.2253418       -64.225341797    
 1997-71-42      2191.0000000        2239.0874023       -48.087402344    
 1997-71-365     2199.0000000        2241.2785645       -42.278564453    
 1949-48-334     2226.0000000        2248.2451172       -22.245117188    
 1949-56-17      2197.0000000        2235.1276855       -38.127685547    
 1942-56-17      2198.0000000        2232.0798340       -34.079833984    
 1942-61-53      2161.0000000        2213.7673340       -52.767333984    
 1942-66-19      2167.0000000        2224.4516602       -57.451660156    
 1942-71-42      2192.0000000        2237.5446777       -45.544677734    
 1942-71-365     2199.0000000        2239.8327637       -40.832763672    
 1943-33-314     2310.0000000        2293.4963379        16.503662109    
 2078-65-355     2293.0000000        2294.5529785       -1.5529785156    
 2078-71-42      2295.0000000        2300.2502441       -5.2502441406    
 2078-71-365     2311.0000000        2302.5947266        8.4052734375    
 2072-16-364     2386.0000000        2393.5786133       -7.5786132812    
 2072-27-10      2370.0000000        2380.3344727       -10.334472656    
 2030-42-362     2302.0000000        2326.2036133       -24.203613281    
 2030-48-357     2279.0000000        2310.2275391       -31.227539062    
 2030-55-348     2271.0000000        2304.3154297       -33.315429688    
 2030-61-3       2261.0000000        2288.5258789       -27.525878906    
 2030-65-355     2258.0000000        2283.7182617       -25.718261719    
 2030-71-42      2270.0000000        2289.9797363       -19.979736328    
 2030-71-365     2276.0000000        2291.3991699       -15.399169922    
 2082-22-32      2373.0000000        2383.4365234       -10.436523438    
 2081-8-101      2392.0000000        2389.1879883        2.8120117188    
 2081-12-109     2384.0000000        2386.7561035       -2.7561035156    
 2081-22-68      2370.0000000        2376.4982910       -6.4982910156    
 2081-42-364     2318.0000000        2315.9138184        2.0861816406    
 2081-56-18      2301.0000000        2297.4377441        3.5622558594    
 2081-71-13      2288.0000000        2279.9707031        8.0292968750    
 2081-71-365     2286.0000000        2282.9262695        3.0737304688    
 2101-8-51       2389.0000000        2393.4226074       -4.4226074219    
 2101-11-86      2381.0000000        2391.1640625       -10.164062500    
 2101-22-32      2365.0000000        2383.9572754       -18.957275391    
 2101-27-10      2363.0000000        2370.7502441       -7.7502441406    
 1986-27-81      2345.0000000        2348.8498535       -3.8498535156    
 1986-42-362     2280.0000000        2295.2937012       -15.293701172    
 1986-48-334     2249.0000000        2268.3298340       -19.329833984    
 1986-55-321     2221.0000000        2259.6564941       -38.656494141    
 1986-61-47      2189.0000000        2241.2119141       -52.211914062    
 1986-66-32      2184.0000000        2247.0534668       -63.053466797    
 1986-71-14      2211.0000000        2256.8913574       -45.891357422    
 1986-71-42      2210.0000000        2257.0617676       -47.061767578    
 1986-71-365     2216.0000000        2258.9121094       -42.912109375    
 1986-71-365     2216.0000000        2258.9121094       -42.912109375    
 1956-32-83      2331.0000000        2336.0646973       -5.0646972656    
 1956-37-34      2320.0000000        2314.6979980        5.3020019531    
 1948-48-274     2256.0000000        2279.0200195       -23.020019531    
 2117-8-182      2421.0000000        2435.9165039       -14.916503906    
 2093-66-26      2423.0000000        2354.5410156        68.458984375    
 2071-16-364     2400.0000000        2398.2209473        1.7790527344    
 2053-56-33      2294.0000000        2326.2006836       -32.200683594    
 2053-65-355     2269.0000000        2298.8913574       -29.891357422    
 2053-71-43      2283.0000000        2303.4118652       -20.411865234    
 2053-71-365     2293.0000000        2305.1528320       -12.152832031    
 2046-61-3       2256.0000000        2311.4230957       -55.423095703    
 2046-65-355     2242.0000000        2300.9470215       -58.947021484    
 2046-71-49      2264.0000000        2305.5812988       -41.581298828    
 2046-71-365     2270.0000000        2306.4082031       -36.408203125    
 2029-66-45      2227.0000000        2290.5322266       -63.532226562    
 2029-71-43      2250.0000000        2296.0148926       -46.014892578    
 2029-71-365     2255.0000000        2296.8510742       -41.851074219    
 2026-71-43      2248.0000000        2300.7038574       -52.703857422    
 2026-71-365     2253.0000000        2301.3178711       -48.317871094    
 2028-71-43      2251.0000000        2300.7768555       -49.776855469    
 2028-71-365     2256.0000000        2301.5227051       -45.522705078    
 2048-56-33      2303.0000000        2333.2192383       -30.219238281    
 2048-65-355     2301.0000000        2311.1633301       -10.163330078    
 2048-71-49      2296.0000000        2317.1047363       -21.104736328    
 2048-71-365     2315.0000000        2319.1933594       -4.1933593750    
 2049-55-347     2298.0000000        2328.5957031       -30.595703125    
 2049-65-355     2294.0000000        2306.9890137       -12.989013672    
 2049-71-43      2294.0000000        2312.8876953       -18.887695312    
 2049-71-365     2308.0000000        2314.9291992       -6.9291992188    
 1995-22-69      2376.0000000        2389.0202637       -13.020263672    
 1995-26-280     2360.0000000        2375.3645020       -15.364501953    
 1995-42-355     2298.0000000        2329.4531250       -31.453125000    
 1995-48-357     2272.0000000        2309.3505859       -37.350585938    
 1995-56-17      2243.0000000        2300.3107910       -57.310791016    
 1995-61-3       2216.0000000        2287.8728027       -71.872802734    
 1995-65-355     2209.0000000        2285.6447754       -76.644775391    
 1995-71-43      2234.0000000        2291.9670410       -57.967041016    
 1995-71-365     2238.0000000        2292.8005371       -54.800537109    
 1947-22-79      2368.0000000        2379.9931641       -11.993164062    
 1947-26-349     2357.0000000        2364.7084961       -7.7084960938    
 1947-32-73      2330.0000000        2349.5905762       -19.590576172    
 1947-39-31      2300.0000000        2326.4738770       -26.473876953    
 1947-48-355     2258.0000000        2287.4406738       -29.440673828    
 1947-55-348     2229.0000000        2276.6289062       -47.628906250    
 1947-61-3       2202.0000000        2265.0488281       -63.048828125    
 1947-66-1       2200.0000000        2269.8269043       -69.826904297    
 1947-71-43      2220.0000000        2277.7207031       -57.720703125    
 1947-71-365     2224.0000000        2278.9841309       -54.984130859    
 1985-56-25      2240.0000000        2305.5883789       -65.588378906    
 1985-66-33      2212.0000000        2291.7812500       -79.781250000    
 1985-71-42      2234.0000000        2298.5603027       -64.560302734    
 2017-42-363     2298.0000000        2326.1896973       -28.189697266    
 2017-48-337     2272.0000000        2304.3916016       -32.391601562    
 2017-56-24      2232.0000000        2295.6013184       -63.601318359    
 2017-61-55      2217.0000000        2282.1613770       -65.161376953    
 2017-66-24      2211.0000000        2283.0483398       -72.048339844    
 2017-71-42      2234.0000000        2290.1076660       -56.107666016    
 1941-16-364     2401.0000000        2413.7368164       -12.736816406    
 2339-1-365      2477.0000000        2485.2387695       -8.2387695312    
 2339-12-113     2470.0000000        2490.2482910       -20.248291016    
 2339-22-74      2475.0000000        2492.7602539       -17.760253906    
 2435-11-80      2546.0000000        2550.1352539       -4.1352539062    
 2435-22-72      2542.0000000        2554.9384766       -12.938476562    
 2443-48-336     2547.0000000        2570.5903320       -23.590332031    
 2443-56-20      2553.0000000        2568.0207520       -15.020751953    
 2443-61-54      2557.0000000        2557.9934082      -0.99340820312    
 2443-66-24      2554.0000000        2543.7592773        10.240722656    
 2443-71-42      2576.0000000        2537.1853027        38.814697266    
 2379-22-74      2529.0000000        2564.6887207       -35.688720703    
 2379-42-356     2540.0000000        2584.2631836       -44.263183594    
 2379-48-336     2543.0000000        2585.6108398       -42.610839844    
 2379-56-19      2542.0000000        2589.3374023       -47.337402344    
 2379-61-55      2541.0000000        2569.5126953       -28.512695312    
 2379-66-27      2540.0000000        2557.2282715       -17.228271484    
 2379-71-42      2542.0000000        2553.8825684       -11.882568359    
 2375-42-357     2537.0000000        2584.3308105       -47.330810547    
 2375-48-350     2537.0000000        2584.9291992       -47.929199219    
 2375-55-348     2533.0000000        2589.6271973       -56.627197266    
 2375-61-48      2534.0000000        2568.2666016       -34.266601562    
 2375-65-350     2532.0000000        2555.0319824       -23.031982422    
 2375-71-55      2534.0000000        2552.9299316       -18.929931641    
 2375-71-365     2537.0000000        2556.1745605       -19.174560547    
 2338-22-74      2520.0000000        2555.1477051       -35.147705078    
 2338-48-355     2525.0000000        2575.1276855       -50.127685547    
 2338-56-5       2527.0000000        2579.9543457       -52.954345703    
 2338-61-48      2518.0000000        2558.0410156       -40.041015625    
 2338-65-350     2512.0000000        2541.4067383       -29.406738281    
 2338-71-55      2514.0000000        2542.6394043       -28.639404297    
 2338-71-365     2515.0000000        2546.3901367       -31.390136719    
 2205-22-74      2581.0000000        2578.0336914        2.9663085938    
 2200-22-85      2588.0000000        2580.2172852        7.7827148438    
 2189-61-55      2613.0000000        2579.7431641        33.256835938    
 2173-61-60      2348.0000000        2548.1320801       -200.13208008    
 2323-22-74      2524.0000000        2551.6740723       -27.674072266    
 2193-48-336     2511.0000000        2520.7761230       -9.7761230469    
 2193-56-19      2510.0000000        2517.3415527       -7.3415527344    
 2193-61-55      2497.0000000        2506.7937012       -9.7937011719    
 2193-66-27      2479.0000000        2488.5437012       -9.5437011719    
 2193-71-42      2474.0000000        2490.3232422       -16.323242188    
 2100-12-113     2520.0000000        2523.0632324       -3.0632324219    
 2100-22-75      2520.0000000        2523.3698730       -3.3698730469    
 2100-42-357     2510.0000000        2509.6584473       0.34155273438    
 2100-48-336     2507.0000000        2513.0507812       -6.0507812500    
 2100-55-347     2504.0000000        2505.6699219       -1.6699218750    
 2100-61-48      2491.0000000        2498.1984863       -7.1984863281    
 2100-65-356     2472.0000000        2481.3347168       -9.3347167969    
 2100-71-42      2467.0000000        2478.3439941       -11.343994141    
 2100-71-54      2466.0000000        2478.2934570       -12.293457031    
 2100-71-365     2471.0000000        2477.2844238       -6.2844238281    
 2324-27-11      2564.0000000        2551.6953125        12.304687500    
 2324-38-91      2574.0000000        2551.0595703        22.940429688    
 2324-42-356     2520.0000000        2560.5371094       -40.537109375    
 2324-56-20      2523.0000000        2562.2099609       -39.209960938    
 2324-66-28      2504.0000000        2531.5961914       -27.596191406    
 2324-71-63      2498.0000000        2532.0783691       -34.078369141    
 2285-22-74      2515.0000000        2539.8496094       -24.849609375    
 2285-32-67      2518.0000000        2545.7199707       -27.719970703    
 2285-38-60      2513.0000000        2543.6232910       -30.623291016    
 2285-71-63      2515.0000000        2522.7570801       -7.7570800781    
 2119-42-357     2493.0000000        2496.2775879       -3.2775878906    
 2119-48-355     2494.0000000        2497.9687500       -3.9687500000    
 2119-55-348     2502.0000000        2494.8144531        7.1855468750    
 2119-61-49      2485.0000000        2480.4602051        4.5397949219    
 2119-71-55      2505.0000000        2458.5629883        46.437011719    
 2119-71-365     2487.0000000        2460.9570312        26.042968750    
 2184-33-274     2510.0000000        2520.4470215       -10.447021484    
 2179-33-26      2473.0000000        2480.1542969       -7.1542968750    
 2179-48-337     2408.0000000        2473.5546875       -65.554687500    
 2179-56-20      2452.0000000        2468.1369629       -16.136962891    
 2179-66-28      2429.0000000        2437.7551270       -8.7551269531    
 2297-42-355     2484.0000000        2515.3249512       -31.324951172    
 2297-48-336     2484.0000000        2516.9277344       -32.927734375    
 2297-56-20      2475.0000000        2513.6650391       -38.665039062    
 2297-61-54      2466.0000000        2501.6252441       -35.625244141    
 2297-66-21      2455.0000000        2485.4528809       -30.452880859    
 2297-71-41      2466.0000000        2480.0427246       -14.042724609    
 2185-42-357     2455.0000000        2460.1862793       -5.1862792969    
 2185-48-355     2455.0000000        2460.2712402       -5.2712402344    
 2185-55-347     2455.0000000        2456.8952637       -1.8952636719    
 2185-66-45      2454.0000000        2424.8032227        29.196777344    
 2185-71-344     2454.0000000        2425.8361816        28.163818359    
 2134-16-361     2462.0000000        2462.5195312      -0.51953125000    
 2134-22-32      2459.0000000        2462.4567871       -3.4567871094    
 2134-27-11      2465.0000000        2460.8200684        4.1799316406    
 2134-48-357     2452.0000000        2443.3657227        8.6342773438    
 2134-55-347     2458.0000000        2438.6166992        19.383300781    
 2134-66-45      2458.0000000        2407.4919434        50.508056641    
 2134-71-344     2450.0000000        2409.4960938        40.503906250    
 2091-61-55      2458.0000000        2420.7724609        37.227539062    
 2091-66-26      2475.0000000        2395.2441406        79.755859375    
 2091-71-55      2473.0000000        2395.8779297        77.122070312    
 2097-48-337     2447.0000000        2385.8681641        61.131835938    
 2097-56-23      2454.0000000        2380.2885742        73.711425781    
 2097-66-26      2455.0000000        2343.7316895        111.26831055    
 2097-71-55      2455.0000000        2346.9152832        108.08471680    
 2068-12-281     2453.0000000        2461.1496582       -8.1496582031    
 2070-48-357     2440.0000000        2442.6081543       -2.6081542969    
 2070-55-348     2456.0000000        2438.4558105        17.544189453    
 2070-60-348     2441.0000000        2428.9399414        12.060058594    
 2070-66-1       2451.0000000        2405.0380859        45.961914062    
 2070-71-365     2433.0000000        2407.3564453        25.643554688    
 2027-39-31      2345.0000000        2404.4494629       -59.449462891    
 2025-66-26      2299.0000000        2356.1713867       -57.171386719    
 2025-71-55      2304.0000000        2359.2050781       -55.205078125    
 2010-32-67      2364.0000000        2397.3117676       -33.311767578    
 1954-32-67      2376.0000000        2432.7800293       -56.780029297    
 1954-48-355     2305.0000000        2400.7976074       -95.797607422    
 1954-55-347     2293.0000000        2395.8220215       -102.82202148    
 1954-66-45      2266.0000000        2372.0700684       -106.07006836    
 1954-71-344     2283.0000000        2373.1093750       -90.109375000    
 1963-32-85      2370.0000000        2421.6953125       -51.695312500    
 1963-42-357     2326.0000000        2395.9533691       -69.953369141    
 1963-48-355     2304.0000000        2381.9099121       -77.909912109    
 1963-55-348     2291.0000000        2380.1921387       -89.192138672    
 1963-61-49      2274.0000000        2372.0280762       -98.028076172    
 1963-65-356     2263.0000000        2360.2687988       -97.268798828    
 1963-71-365     2282.0000000        2361.2822266       -79.282226562    
 2090-27-11      2485.0000000        2479.5595703        5.4404296875    
 2065-66-45      2433.0000000        2417.1430664        15.856933594    
 2065-71-365     2441.0000000        2417.6826172        23.317382812    
 2003-71-365     2445.0000000        2416.0717773        28.928222656    
 1984-42-355     2470.0000000        2456.2448730        13.755126953    
 1984-48-336     2463.0000000        2457.4667969        5.5332031250    
 2116-65-350     2453.0000000        2445.6586914        7.3413085938    
 2047-56-19      2480.0000000        2480.7663574      -0.76635742188    
 2047-61-55      2445.0000000        2464.1423340       -19.142333984    
 2047-66-21      2418.0000000        2441.6208496       -23.620849609    
 2044-56-19      2475.0000000        2472.7583008        2.2416992188    
 2044-61-55      2440.0000000        2455.9321289       -15.932128906    
 2044-66-21      2413.0000000        2433.6342773       -20.634277344    
 2044-71-41      2429.0000000        2431.1159668       -2.1159667969    
 2018-34-212     2503.0000000        2486.3962402        16.603759766    
 2012-1-52       2487.0000000        2484.8164062        2.1835937500    
 2012-42-335     2470.0000000        2466.1650391        3.8349609375    
 2012-48-355     2465.0000000        2469.5693359       -4.5693359375    
 2012-55-348     2470.0000000        2461.9401855        8.0598144531    
 2012-66-1       2417.0000000        2422.6650391       -5.6650390625    
 2012-71-365     2440.0000000        2424.7526855        15.247314453    
 1979-56-23      2478.0000000        2461.3984375        16.601562500    
 1979-61-55      2438.0000000        2445.1091309       -7.1091308594    
 2002-16-361     2488.0000000        2496.6350098       -8.6350097656    
 2002-27-12      2490.0000000        2496.8608398       -6.8608398438    
 1961-56-23      2472.0000000        2452.7395020        19.260498047    
 1961-66-26      2406.0000000        2417.7902832       -11.790283203    
 1961-71-41      2420.0000000        2419.4104004       0.58959960938    
 2080-42-356     2511.0000000        2503.8854980        7.1145019531    
 2080-48-350     2506.0000000        2507.5463867       -1.5463867188    
 2080-55-347     2504.0000000        2500.9633789        3.0366210938    
 2080-66-45      2465.0000000        2473.2111816       -8.2111816406    
 2042-55-347     2498.0000000        2504.1000977       -6.1000976562    
 2042-65-356     2451.0000000        2476.8073730       -25.807373047    
 2042-71-54      2447.0000000        2475.8540039       -28.854003906    
 2042-71-365     2454.0000000        2474.7619629       -20.761962891    
 1964-33-38      2501.0000000        2507.8215332       -6.8215332031    
 1976-42-357     2465.0000000        2481.3461914       -16.346191406    
 1976-48-355     2503.0000000        2485.1320801        17.867919922    
 1976-55-348     2474.0000000        2478.7543945       -4.7543945312    
 1976-60-305     2439.0000000        2464.7636719       -25.763671875    
 1976-66-1       2402.0000000        2441.7692871       -39.769287109    
 1976-71-55      2414.0000000        2443.1010742       -29.101074219    
 1976-71-365     2424.0000000        2443.6577148       -19.657714844    
 1970-42-356     2502.0000000        2481.9980469        20.001953125    
 1970-48-336     2495.0000000        2485.9509277        9.0490722656    
 1970-56-19      2505.0000000        2479.5698242        25.430175781    
 2051-43-1       2503.0000000        2523.1918945       -20.191894531    
 2051-65-356     2450.0000000        2501.1518555       -51.151855469    
 2051-71-54      2447.0000000        2498.6071777       -51.607177734    
 2051-71-365     2451.0000000        2497.6391602       -46.639160156    
 1973-11-214     2529.0000000        2534.8254395       -5.8254394531    
 1969-11-190     2517.0000000        2535.4472656       -18.447265625    
 1946-66-5       2443.0000000        2512.9748535       -69.974853516    
 1946-71-22      2447.0000000        2515.1684570       -68.168457031    
 1946-71-365     2456.0000000        2515.3969727       -59.396972656    
 1967-27-87      2542.0000000        2557.7783203       -15.778320312    
 1967-42-356     2502.0000000        2525.6462402       -23.646240234    
 1967-48-350     2494.0000000        2524.4978027       -30.497802734    
 1967-55-347     2495.0000000        2530.4831543       -35.483154297    
 1967-66-5       2444.0000000        2509.1406250       -65.140625000    
 1967-71-22      2446.0000000        2512.5571289       -66.557128906    
 1967-71-365     2454.0000000        2512.7788086       -58.778808594    
 1939-42-356     2504.0000000        2472.8564453        31.143554688    
 1939-48-350     2495.0000000        2488.7646484        6.2353515625    
 1939-55-347     2497.0000000        2489.5915527        7.4084472656    
 1939-60-356     2480.0000000        2500.0583496       -20.058349609    
 1939-71-22      2448.0000000        2511.8720703       -63.872070312    
 1939-71-365     2457.0000000        2512.0585938       -55.058593750    
 1975-16-361     2581.0000000        2575.3723145        5.6276855469    
 1975-27-12      2580.0000000        2580.1794434      -0.17944335938    
 1945-56-25      2584.0000000        2570.5314941        13.468505859    
 1945-61-54      2569.0000000        2560.1066895        8.8933105469    
 1945-66-27      2577.0000000        2545.9772949        31.022705078    
 1945-71-41      2576.0000000        2546.1584473        29.841552734    
 1711-42-352     1846.0000000        1862.7553711       -16.755371094    
 1711-48-350     1844.0000000        1867.5349121       -23.534912109    
 1711-55-354     1846.0000000        1871.3198242       -25.319824219    
 1711-61-21      1848.0000000        1872.0511475       -24.051147461    
 1711-66-39      1836.0000000        1850.7392578       -14.739257812    
 1711-71-7       1842.0000000        1866.8223877       -24.822387695    
 1711-71-365     1843.0000000        1873.8586426       -30.858642578    
 1555-27-24      1867.0000000        1895.4824219       -28.482421875    
 1555-31-348     1851.0000000        1877.5592041       -26.559204102    
 1555-37-341     1811.0000000        1865.0311279       -54.031127930    
 1555-48-348     1846.0000000        1873.9394531       -27.939453125    
 1555-56-27      1843.0000000        1876.9404297       -33.940429688    
 1555-60-319     1847.0000000        1877.1788330       -30.178833008    
 1555-65-301     1827.0000000        1855.5008545       -28.500854492    
 1555-71-11      1841.0000000        1874.4212646       -33.421264648    
 1555-71-365     1845.0000000        1880.9346924       -35.934692383    
 1428-11-1       1997.0000000        2011.8382568       -14.838256836    
 1428-17-11      1983.0000000        2004.2225342       -21.222534180    
 1428-22-12      1969.0000000        1985.4503174       -16.450317383    
 1428-32-85      1946.0000000        1946.8804932      -0.88049316406    
 1383-1-106      2023.0000000        2027.9340820       -4.9340820312    
 1383-7-337      2024.0000000        2023.0236816       0.97631835938    
 1383-12-361     2025.0000000        2024.7186279       0.28137207031    
 1819-38-13      1884.0000000        1878.7177734        5.2822265625    
 1819-42-352     1885.0000000        1881.2653809        3.7346191406    
 1819-55-354     1873.0000000        1884.8798828       -11.879882812    
 1820-71-12      1977.0000000        1964.9942627        12.005737305    
 1820-71-365     1948.0000000        1961.3204346       -13.320434570    
 1748-17-6       1946.0000000        1958.7712402       -12.771240234    
 1748-21-335     1923.0000000        1931.7751465       -8.7751464844    
 1748-48-348     1881.0000000        1888.7778320       -7.7778320312    
 1748-60-305     1887.0000000        1895.5140381       -8.5140380859    
 1748-66-1       1901.0000000        1884.4252930        16.574707031    
 1748-71-8       1952.0000000        1938.8015137        13.198486328    
 1748-71-365     1953.0000000        1944.1325684        8.8674316406    
 1903-71-365     1926.0000000        1934.8104248       -8.8104248047    
 1862-71-365     1905.0000000        1917.1092529       -12.109252930    
 1861-65-364     1916.0000000        1922.8225098       -6.8225097656    
 1861-71-365     1952.0000000        1951.2648926       0.73510742188    
 1833-71-365     1934.0000000        1908.9952393        25.004760742    
 1770-71-365     1954.0000000        1921.6091309        32.390869141    
 1758-71-365     1924.0000000        1907.1516113        16.848388672    
 1709-22-38      1907.0000000        1921.8714600       -14.871459961    
 1709-42-352     1881.0000000        1882.8294678       -1.8294677734    
 1709-55-354     1871.0000000        1886.1389160       -15.138916016    
 1709-65-344     1908.0000000        1865.7968750        42.203125000    
 1709-71-365     1954.0000000        1919.8448486        34.155151367    
 1700-71-365     1954.0000000        1922.5804443        31.419555664    
 1828-71-365     1954.0000000        1923.5026855        30.497314453    
 1698-71-365     1984.0000000        1944.3469238        39.653076172    
 1883-65-336     1858.0000000        1837.4393311        20.560668945    
 1883-71-365     1882.0000000        1882.3739014      -0.37390136719    
 1838-71-365     1856.0000000        1875.4913330       -19.491333008    
 1805-71-365     1842.0000000        1864.9333496       -22.933349609    
 1702-16-354     1930.0000000        1941.3707275       -11.370727539    
 1702-42-352     1867.0000000        1874.3088379       -7.3088378906    
 1702-48-349     1865.0000000        1877.6083984       -12.608398438    
 1702-55-354     1861.0000000        1879.5141602       -18.514160156    
 1702-61-31      1873.0000000        1882.2326660       -9.2326660156    
 1702-65-344     1835.0000000        1847.7191162       -12.719116211    
 1702-71-365     1869.0000000        1878.3665771       -9.3665771484    
 1704-71-365     1865.0000000        1886.6878662       -21.687866211    
 1829-71-365     1888.0000000        1888.7156982      -0.71569824219    
 1710-17-6       1935.0000000        1943.5009766       -8.5009765625    
 1710-42-352     1874.0000000        1876.6376953       -2.6376953125    
 1710-48-349     1871.0000000        1879.7279053       -8.7279052734    
 1710-55-354     1867.0000000        1881.5036621       -14.503662109    
 1710-61-31      1882.0000000        1886.3023682       -4.3023681641    
 1710-65-344     1849.0000000        1849.5068359      -0.50683593750    
 1710-71-365     1891.0000000        1896.9254150       -5.9254150391    
 1703-71-365     1899.0000000        1884.4752197        14.524780273    
 1663-12-305     1964.0000000        1974.4499512       -10.449951172    
 1663-42-352     1877.0000000        1880.6877441       -3.6877441406    
 1663-48-349     1873.0000000        1883.3284912       -10.328491211    
 1663-55-354     1869.0000000        1884.6853027       -15.685302734    
 1663-61-31      1880.0000000        1888.6539307       -8.6539306641    
 1663-65-338     1844.0000000        1854.2373047       -10.237304688    
 1663-71-365     1891.0000000        1900.2056885       -9.2056884766    
 1667-71-365     1888.0000000        1898.0631104       -10.063110352    
 1686-71-365     1980.0000000        1942.1149902        37.885009766    
 1653-71-365     2007.0000000        1966.7174072        40.282592773    
 1634-71-365     1985.0000000        1942.8184814        42.181518555    
 1637-71-365     1997.0000000        1954.8360596        42.163940430    
 1635-71-365     1936.0000000        1926.0758057        9.9241943359    
 1584-17-6       1957.0000000        1970.8278809       -13.827880859    
 1584-22-38      1934.0000000        1945.4157715       -11.415771484    
 1584-27-27      1919.0000000        1923.3771973       -4.3771972656    
 1584-32-85      1896.0000000        1907.9274902       -11.927490234    
 1584-37-34      1893.0000000        1898.3359375       -5.3359375000    
 1584-42-352     1904.0000000        1901.8737793        2.1262207031    
 1584-48-348     1898.0000000        1902.4383545       -4.4383544922    
 1584-55-354     1891.0000000        1901.8933105       -10.893310547    
 1584-60-323     1899.0000000        1904.4337158       -5.4337158203    
 1584-65-344     1892.0000000        1883.5190430        8.4809570312    
 1584-71-365     1958.0000000        1936.8656006        21.134399414    
 1585-71-365     1953.0000000        1939.2427979        13.757202148    
 1592-71-365     1979.0000000        1971.9388428        7.0611572266    
 1591-71-365     1992.0000000        1979.0057373        12.994262695    
 1590-71-365     1994.0000000        1958.1771240        35.822875977    
 1650-71-365     1967.0000000        1974.3145752       -7.3145751953    
 1684-48-275     1902.0000000        1912.8992920       -10.899291992    
 1684-66-20      1899.0000000        1896.1623535        2.8376464844    
 1685-48-275     1902.0000000        1912.8992920       -10.899291992    
 1685-66-20      1896.0000000        1896.1623535      -0.16235351562    
 1496-21-355     1982.0000000        2006.5339355       -24.533935547    
 1496-27-27      1971.0000000        1986.0548096       -15.054809570    
 1496-32-85      1959.0000000        1970.5977783       -11.597778320    
 1496-36-91      1953.0000000        1965.2133789       -12.213378906    
 1496-56-19      1930.0000000        1946.4310303       -16.431030273    
 1491-56-19      1932.0000000        1946.6171875       -14.617187500    
 1501-16-309     2004.0000000        2040.5689697       -36.568969727    
 1497-48-300     1940.0000000        1949.2003174       -9.2003173828    
 1497-55-318     1931.0000000        1942.2349854       -11.234985352    
 1497-60-313     1916.0000000        1930.4958496       -14.495849609    
 1497-65-364     1898.0000000        1917.9250488       -19.925048828    
 1497-71-350     1941.0000000        1943.6556396       -2.6556396484    
 1498-48-300     1941.0000000        1949.2165527       -8.2165527344    
 1498-55-318     1930.0000000        1942.2890625       -12.289062500    
 1498-60-313     1917.0000000        1930.7081299       -13.708129883    
 1498-65-364     1898.0000000        1918.0787354       -20.078735352    
 1498-71-350     1942.0000000        1942.3395996      -0.33959960938    
 1442-36-1       1957.0000000        1949.6038818        7.3961181641    
 1442-42-349     1941.0000000        1942.0615234       -1.0615234375    
 1442-48-349     1933.0000000        1938.1549072       -5.1549072266    
 1442-55-353     1923.0000000        1932.0129395       -9.0129394531    
 1442-61-21      1907.0000000        1917.5583496       -10.558349609    
 1473-10-213     2021.0000000        2046.0324707       -25.032470703    
 1407-22-38      1991.0000000        1991.2437744      -0.24377441406    
 1407-42-349     1957.0000000        1964.6330566       -7.6330566406    
 1407-48-349     1949.0000000        1957.2791748       -8.2791748047    
 1407-55-353     1937.0000000        1947.8333740       -10.833374023    
 1407-61-21      1916.0000000        1923.7910156       -7.7910156250    
 1407-66-34      1900.0000000        1915.1278076       -15.127807617    
 1407-71-365     1990.0000000        1956.9937744        33.006225586    
 1412-71-365     1993.0000000        1955.1512451        37.848754883    
 1393-38-335     1974.0000000        1967.6929932        6.3070068359    
 1393-42-349     1957.0000000        1957.8568115      -0.85681152344    
 1393-48-349     1950.0000000        1953.4733887       -3.4733886719    
 1393-55-353     1938.0000000        1943.3371582       -5.3371582031    
 1393-71-365     2034.0000000        1980.7309570        53.269042969    
 1376-36-78      1988.0000000        1977.6564941        10.343505859    
 1376-48-349     1957.0000000        1962.9624023       -5.9624023438    
 1376-61-21      1921.0000000        1926.4157715       -5.4157714844    
 1376-66-34      1905.0000000        1918.5739746       -13.573974609    
 1376-71-56      1990.0000000        1958.7557373        31.244262695    
 1376-71-365     2019.0000000        1978.9274902        40.072509766    
 1361-71-362     1995.0000000        1968.0856934        26.914306641    
 1362-71-362     1995.0000000        1968.0856934        26.914306641    
 1421-71-362     2025.0000000        2039.6254883       -14.625488281    
 1403-66-34      1900.0000000        1913.6263428       -13.626342773    
 1403-71-56      1997.0000000        1957.0242920        39.975708008    
 1403-71-365     2031.0000000        1978.2039795        52.796020508    
 1388-71-362     2044.0000000        2028.5194092        15.480590820    
 1364-17-12      2001.0000000        2026.3203125       -25.320312500    
 1364-38-335     1980.0000000        1978.7719727        1.2280273438    
 1364-42-349     1961.0000000        1966.6530762       -5.6530761719    
 1364-55-353     1942.0000000        1951.3825684       -9.3825683594    
 1364-66-34      1904.0000000        1916.3120117       -12.312011719    
 1364-71-365     2054.0000000        2054.4143066      -0.41430664062    
 1365-17-12      2006.0000000        2027.1646729       -21.164672852    
 1365-22-6       1999.0000000        2002.5842285       -3.5842285156    
 1365-27-27      1992.0000000        1985.7729492        6.2270507812    
 1365-32-85      1986.0000000        1975.8029785        10.197021484    
 1365-37-17      1983.0000000        1972.8905029        10.109497070    
 1365-42-349     1965.0000000        1966.2352295       -1.2352294922    
 1365-48-349     1959.0000000        1962.4831543       -3.4831542969    
 1365-55-353     1948.0000000        1953.1442871       -5.1442871094    
 1365-60-364     1925.0000000        1933.9912109       -8.9912109375    
 1365-66-1       1907.0000000        1921.6718750       -14.671875000    
 1365-71-365     2045.0000000        2006.0670166        38.932983398    
 1335-71-362     2054.0000000        2062.6730957       -8.6730957031    
 1313-36-114     1987.0000000        1984.8577881        2.1422119141    
 1313-42-349     1974.0000000        1981.0842285       -7.0842285156    
 1313-48-349     1966.0000000        1976.2065430       -10.206542969    
 1313-55-353     1953.0000000        1964.6127930       -11.612792969    
 1313-61-21      1922.0000000        1939.0510254       -17.051025391    
 1313-66-13      1906.0000000        1929.5627441       -23.562744141    
 1266-17-12      2022.0000000        2046.7509766       -24.750976562    
 1266-38-335     2003.0000000        1999.8830566        3.1169433594    
 1266-42-349     1987.0000000        1991.8236084       -4.8236083984    
 1266-48-349     1980.0000000        1986.5886230       -6.5886230469    
 1266-56-3       1967.0000000        1974.4250488       -7.4250488281    
 1266-61-21      1938.0000000        1951.5666504       -13.566650391    
 1266-66-12      1922.0000000        1940.2559814       -18.255981445    
 1266-71-56      2000.0000000        1988.1842041        11.815795898    
 1266-71-365     2050.0000000        2027.3040771        22.695922852    
 1258-71-362     2050.0000000        2013.9532471        36.046752930    
 1265-17-12      2015.0000000        2045.7414551       -30.741455078    
 1265-38-335     2003.0000000        2000.7299805        2.2700195312    
 1265-42-349     1982.0000000        1991.5980225       -9.5980224609    
 1265-48-349     1975.0000000        1986.3785400       -11.378540039    
 1265-55-353     1961.0000000        1972.8441162       -11.844116211    
 1265-66-34      1917.0000000        1937.0509033       -20.050903320    
 1265-71-56      1998.0000000        1986.0421143        11.957885742    
 1265-71-365     2040.0000000        2012.3703613        27.629638672    
 1336-17-12      2021.0000000        2041.3177490       -20.317749023    
 1336-38-335     1988.0000000        1986.3499756        1.6500244141    
 1336-42-349     1974.0000000        1974.6988525      -0.69885253906    
 1336-48-349     1965.0000000        1970.9903564       -5.9903564453    
 1336-55-353     1959.0000000        1959.1220703      -0.12207031250    
 1336-71-40      1955.0000000        1949.2503662        5.7496337891    
 1336-71-365     1999.0000000        1970.1450195        28.854980469    
 1337-42-349     1965.0000000        1973.3217773       -8.3217773438    
 1337-55-353     1947.0000000        1954.8919678       -7.8919677734    
 1337-66-27      1901.0000000        1918.1022949       -17.102294922    
 1337-71-365     2033.0000000        2029.4218750        3.5781250000    
 1340-36-38      1989.0000000        1980.2784424        8.7215576172    
 1340-42-349     1969.0000000        1973.9017334       -4.9017333984    
 1340-48-349     1961.0000000        1968.7481689       -7.7481689453    
 1340-55-353     1948.0000000        1956.6420898       -8.6420898438    
 1340-66-10      1902.0000000        1922.4777832       -20.477783203    
 1340-71-56      2011.0000000        1970.7867432        40.213256836    
 1340-71-365     2033.0000000        1996.8779297        36.122070312    
 1264-38-335     2000.0000000        2001.2482910       -1.2482910156    
 1264-42-349     1981.0000000        1991.6480713       -10.648071289    
 1264-71-70      1982.0000000        1973.0480957        8.9519042969    
 1264-71-365     2018.0000000        1996.8709717        21.129028320    
 1257-66-33      1916.0000000        1939.0363770       -23.036376953    
 1257-71-56      1959.0000000        1964.6243896       -5.6243896484    
 1257-71-365     1994.0000000        1983.0454102        10.954589844    
 1371-56-31      1966.0000000        1979.7930908       -13.793090820    
 1371-66-56      1937.0000000        1953.0742188       -16.074218750    
 1371-71-50      1934.0000000        1953.1250000       -19.125000000    
 1371-71-365     1940.0000000        1956.8695068       -16.869506836    
 1370-34-198     2015.0000000        2010.4610596        4.5389404297    
 1370-56-31      1974.0000000        1982.0711670       -8.0711669922    
 1370-66-56      1951.0000000        1955.7698975       -4.7698974609    
 1370-71-50      1943.0000000        1953.5500488       -10.550048828    
 1370-71-365     1945.0000000        1956.2250977       -11.225097656    
 1849-12-32      2295.0000000        2304.0898438       -9.0898437500    
 1849-17-34      2282.0000000        2294.8774414       -12.877441406    
 1849-22-1       2276.0000000        2281.9753418       -5.9753417969    
 1847-48-362     2218.0000000        2221.9619141       -3.9619140625    
 1847-56-34      2197.0000000        2204.8898926       -7.8898925781    
 1847-61-3       2185.0000000        2190.7182617       -5.7182617188    
 1847-66-1       2178.0000000        2179.6191406       -1.6191406250    
 1847-71-56      2177.0000000        2180.0878906       -3.0878906250    
 1847-71-365     2179.0000000        2180.8835449       -1.8835449219    
 1742-1-365      2295.0000000        2302.9550781       -7.9550781250    
 1741-1-365      2294.0000000        2304.2026367       -10.202636719    
 1766-1-365      2333.0000000        2306.0966797        26.903320312    
 1848-56-34      2194.0000000        2207.1728516       -13.172851562    
 1848-65-336     2176.0000000        2175.9270020       7.29980468750E-02
 1848-71-365     2172.0000000        2171.5891113       0.41088867188    
 1901-2-36       2292.0000000        2281.6137695        10.386230469    
 1912-1-365      2284.0000000        2278.2941895        5.7058105469    
 1929-1-365      2283.0000000        2277.3269043        5.6730957031    
 1902-1-365      2282.0000000        2279.2402344        2.7597656250    
 1872-71-68      2168.0000000        2163.3542480        4.6457519531    
 1872-71-365     2169.0000000        2163.2561035        5.7438964844    
 1871-56-34      2185.0000000        2199.8730469       -14.873046875    
 1832-17-37      2250.0000000        2266.5456543       -16.545654297    
 1832-22-1       2238.0000000        2256.1691895       -18.169189453    
 1832-32-49      2224.0000000        2239.4531250       -15.453125000    
 1832-42-362     2198.0000000        2217.7612305       -19.761230469    
 1832-48-362     2207.0000000        2215.2255859       -8.2255859375    
 1832-56-34      2189.0000000        2202.2988281       -13.298828125    
 1832-61-3       2179.0000000        2185.8054199       -6.8054199219    
 1832-71-21      2168.0000000        2165.6789551        2.3210449219    
 1832-71-365     2168.0000000        2165.1826172        2.8173828125    
 1767-27-40      2263.0000000        2254.6701660        8.3298339844    
 1767-42-363     2207.0000000        2224.7871094       -17.787109375    
 1767-56-34      2199.0000000        2211.4724121       -12.472412109    
 1818-65-336     2171.0000000        2174.9450684       -3.9450683594    
 1804-71-76      2169.0000000        2169.8225098      -0.82250976562    
 1804-71-365     2168.0000000        2169.8005371       -1.8005371094    
 1793-42-362     2203.0000000        2221.9145508       -18.914550781    
 1793-48-334     2211.0000000        2221.9541016       -10.954101562    
 1793-56-34      2196.0000000        2209.3928223       -13.392822266    
 1793-65-336     2179.0000000        2178.1240234       0.87597656250    
 1793-71-21      2174.0000000        2172.2980957        1.7019042969    
 1793-71-365     2173.0000000        2172.1049805       0.89501953125    
 1891-1-365      2278.0000000        2276.6711426        1.3288574219    
 1891-11-38      2260.0000000        2266.7233887       -6.7233886719    
 1891-17-37      2237.0000000        2255.1762695       -18.176269531    
 1690-32-32      2242.0000000        2260.7844238       -18.784423828    
 1690-34-32      2237.0000000        2254.4909668       -17.490966797    
 1690-42-362     2216.0000000        2237.2355957       -21.235595703    
 1690-48-362     2222.0000000        2235.1835938       -13.183593750    
 1690-56-34      2207.0000000        2222.9902344       -15.990234375    
 1690-61-3       2187.0000000        2205.4245605       -18.424560547    
 1690-71-21      2185.0000000        2184.7102051       0.28979492188    
 1690-71-365     2186.0000000        2185.6379395       0.36206054688    
 1697-56-34      2201.0000000        2218.9780273       -17.978027344    
 1697-65-336     2184.0000000        2186.7421875       -2.7421875000    
 1697-71-21      2181.0000000        2180.8508301       0.14916992188    
 1697-71-365     2181.0000000        2181.1230469      -0.12304687500    
 1638-22-30      2262.0000000        2287.2880859       -25.288085938    
 1638-27-48      2252.0000000        2276.0664062       -24.066406250    
 1638-32-49      2248.0000000        2269.9143066       -21.914306641    
 1638-37-49      2231.0000000        2253.3798828       -22.379882812    
 1638-42-363     2220.0000000        2246.4375000       -26.437500000    
 1642-1-365      2316.0000000        2321.2893066       -5.2893066406    
 1642-8-48       2310.0000000        2318.2558594       -8.2558593750    
 1626-1-365      2317.0000000        2328.6120605       -11.612060547    
 1625-26-349     2281.0000000        2286.2028809       -5.2028808594    
 1625-32-49      2274.0000000        2279.5573730       -5.5573730469    
 1625-42-362     2244.0000000        2252.5632324       -8.5632324219    
 1625-48-362     2241.0000000        2246.7199707       -5.7199707031    
 1625-56-34      2226.0000000        2230.4934082       -4.4934082031    
 1625-61-3       2218.0000000        2213.6770020        4.3229980469    
 1508-12-54      2335.0000000        2329.8779297        5.1220703125    
 1508-17-33      2334.0000000        2326.2143555        7.7856445312    
 1508-22-26      2330.0000000        2312.7524414        17.247558594    
 1508-27-15      2332.0000000        2302.1157227        29.884277344    
 1508-32-49      2321.0000000        2296.9257812        24.074218750    
 1508-43-5       2280.0000000        2271.7805176        8.2194824219    
 1508-48-364     2290.0000000        2272.7807617        17.219238281    
 1508-56-34      2275.0000000        2257.4619141        17.538085938    
 1508-61-3       2245.0000000        2233.2351074        11.764892578    
 1508-71-49      2245.0000000        2210.4797363        34.520263672    
 1508-71-365     2249.0000000        2210.3955078        38.604492188    
 1479-43-5       2283.0000000        2284.4653320       -1.4653320312    
 1479-48-364     2295.0000000        2290.1337891        4.8662109375    
 1479-56-34      2280.0000000        2274.0112305        5.9887695312    
 1479-60-363     2247.0000000        2244.1857910        2.8142089844    
 1479-71-70      2249.0000000        2220.3459473        28.654052734    
 1479-71-365     2251.0000000        2220.1293945        30.870605469    
 1462-42-364     2289.0000000        2289.3818359      -0.38183593750    
 1462-48-334     2293.0000000        2296.8740234       -3.8740234375    
 1462-56-16      2279.0000000        2280.1708984       -1.1708984375    
 1468-1-365      2357.0000000        2354.2893066        2.7106933594    
 1471-11-278     2346.0000000        2343.9748535        2.0251464844    
 1471-17-33      2344.0000000        2343.1154785       0.88452148438    
 1471-22-26      2339.0000000        2326.4077148        12.592285156    
 1471-26-349     2333.0000000        2317.0329590        15.967041016    
 1471-43-5       2284.0000000        2285.6435547       -1.6435546875    
 1471-48-364     2296.0000000        2292.1210938        3.8789062500    
 1471-65-336     2241.0000000        2230.9118652        10.088134766    
 1471-71-70      2248.0000000        2222.7353516        25.264648438    
 1471-71-365     2250.0000000        2222.7734375        27.226562500    
 1461-12-54      2348.0000000        2348.7399902      -0.73999023438    
 1461-17-44      2340.0000000        2344.1535645       -4.1535644531    
 1461-22-30      2330.0000000        2331.8845215       -1.8845214844    
 1461-27-59      2319.0000000        2318.7768555       0.22314453125    
 1461-42-363     2295.0000000        2288.5766602        6.4233398438    
 1461-48-336     2311.0000000        2288.2006836        22.799316406    
 1461-56-34      2299.0000000        2270.6992188        28.300781250    
 1461-60-363     2271.0000000        2247.4121094        23.587890625    
 1461-66-59      2274.0000000        2231.3798828        42.620117188    
 1461-71-70      2283.0000000        2225.3701172        57.629882812    
 1461-71-365     2287.0000000        2224.8652344        62.134765625    
 1387-42-362     2292.0000000        2308.0703125       -16.070312500    
 1387-49-2       2310.0000000        2317.2099609       -7.2099609375    
 1387-56-33      2280.0000000        2297.0119629       -17.011962891    
 1387-60-363     2244.0000000        2259.9667969       -15.966796875    
 1387-66-59      2240.0000000        2240.8061523      -0.80615234375    
 1387-71-70      2252.0000000        2233.5078125        18.492187500    
 1387-71-365     2256.0000000        2232.7343750        23.265625000    
 1391-17-41      2368.0000000        2362.2761230        5.7238769531    
 1391-22-31      2358.0000000        2350.3710938        7.6289062500    
 1391-42-362     2310.0000000        2306.0158691        3.9841308594    
 1391-48-338     2314.0000000        2311.0537109        2.9462890625    
 1391-56-16      2281.0000000        2292.7124023       -11.712402344    
 1391-61-59      2260.0000000        2261.6669922       -1.6669921875    
 1391-66-27      2277.0000000        2244.8508301        32.149169922    
 1391-71-56      2263.0000000        2237.4604492        25.539550781    
 1386-17-41      2369.0000000        2362.6135254        6.3864746094    
 1386-22-31      2358.0000000        2350.6884766        7.3115234375    
 1386-42-362     2292.0000000        2306.3332520       -14.333251953    
 1386-48-337     2298.0000000        2311.6520996       -13.652099609    
 1386-56-16      2296.0000000        2293.2111816        2.7888183594    
 1398-48-335     2302.0000000        2312.1154785       -10.115478516    
 1401-2-1        2373.0000000        2369.5937500        3.4062500000    
 1401-12-53      2358.0000000        2358.0810547      -8.10546875000E-02
 1401-17-60      2362.0000000        2362.2805176      -0.28051757812    
 1401-22-26      2353.0000000        2344.6374512        8.3625488281    
 1427-17-39      2358.0000000        2359.1457520       -1.1457519531    
 1427-22-31      2350.0000000        2341.0356445        8.9643554688    
 1427-42-362     2293.0000000        2301.4350586       -8.4350585938    
 1427-48-364     2305.0000000        2311.4958496       -6.4958496094    
 1427-56-33      2285.0000000        2292.8955078       -7.8955078125    
 1378-42-364     2285.0000000        2311.9780273       -26.978027344    
 1400-1-32       2376.0000000        2369.9301758        6.0698242188    
 1400-12-53      2361.0000000        2358.4362793        2.5637207031    
 1400-17-60      2364.0000000        2362.5532227        1.4467773438    
 1400-22-26      2355.0000000        2344.9262695        10.073730469    
 1400-27-48      2349.0000000        2338.3916016        10.608398438    
 1400-36-3       2310.0000000        2310.7475586      -0.74755859375    
 1400-43-5       2292.0000000        2304.5068359       -12.506835938    
 1400-48-364     2307.0000000        2316.0097656       -9.0097656250    
 1400-56-33      2284.0000000        2296.3012695       -12.301269531    
 1400-60-363     2248.0000000        2258.8193359       -10.819335938    
 1400-71-365     2259.0000000        2232.2219238        26.778076172    
 1405-7-308      2360.0000000        2365.0556641       -5.0556640625    
 1405-10-34      2359.0000000        2360.7915039       -1.7915039062    
 1405-43-5       2287.0000000        2305.7124023       -18.712402344    
 1405-48-364     2301.0000000        2316.9648438       -15.964843750    
 1405-56-33      2278.0000000        2297.0998535       -19.099853516    
 1405-66-13      2235.0000000        2240.5759277       -5.5759277344    
 1405-71-365     2252.0000000        2233.3669434        18.633056641    
 1349-17-41      2357.0000000        2379.4001465       -22.400146484    
 1349-22-30      2345.0000000        2359.6110840       -14.611083984    
 1329-1-274      2381.0000000        2387.4545898       -6.4545898438    
 1329-17-41      2368.0000000        2382.8071289       -14.807128906    
 1329-22-31      2357.0000000        2363.0507812       -6.0507812500    
 1329-42-364     2285.0000000        2325.1896973       -40.189697266    
 1329-56-16      2275.0000000        2316.9179688       -41.917968750    
 1329-66-26      2245.0000000        2250.8850098       -5.8850097656    
 1282-1-277      2407.0000000        2391.6435547        15.356445312    
 1283-1-309      2387.0000000        2392.5107422       -5.5107421875    
 1283-6-340      2379.0000000        2389.4196777       -10.419677734    
 1283-11-350     2372.0000000        2381.1105957       -9.1105957031    
 1283-16-301     2369.0000000        2387.1076660       -18.107666016    
 1283-22-30      2361.0000000        2369.2587891       -8.2587890625    
 1283-27-10      2352.0000000        2363.4228516       -11.422851562    
 1283-35-345     2312.0000000        2332.2978516       -20.297851562    
 1274-6-288      2376.0000000        2388.9230957       -12.923095703    
 1274-12-54      2369.0000000        2381.2509766       -12.250976562    
 1274-17-41      2373.0000000        2386.8581543       -13.858154297    
 1274-22-30      2360.0000000        2369.0205078       -9.0205078125    
 1356-43-1       2285.0000000        2314.2136230       -29.213623047    
 1347-66-49      2241.0000000        2237.3044434        3.6955566406    
 1345-55-350     2281.0000000        2302.7255859       -21.725585938    
 1345-61-33      2244.0000000        2256.4377441       -12.437744141    
 1345-66-49      2241.0000000        2237.5324707        3.4675292969    
 1345-71-68      2252.0000000        2231.7524414        20.247558594    
 1345-71-365     2257.0000000        2231.5449219        25.455078125    
 1321-12-57      2369.0000000        2376.5864258       -7.5864257812    
 1321-17-41      2374.0000000        2378.6286621       -4.6286621094    
 1321-22-27      2361.0000000        2363.3754883       -2.3754882812    
 1321-27-51      2354.0000000        2355.7993164       -1.7993164062    
 1360-56-34      2271.0000000        2304.3923340       -33.392333984    
 1360-60-362     2240.0000000        2260.0063477       -20.006347656    
 1360-65-348     2229.0000000        2241.1523438       -12.152343750    
 1360-71-48      2243.0000000        2235.8339844        7.1660156250    
 1360-71-365     2248.0000000        2235.8349609        12.165039062    
 1328-1-277      2386.0000000        2386.6223145      -0.62231445312    
 1328-6-295      2377.0000000        2380.5859375       -3.5859375000    
 1306-11-41      2364.0000000        2378.2121582       -14.212158203    
 1306-17-41      2368.0000000        2380.7165527       -12.716552734    
 1306-22-27      2356.0000000        2363.3864746       -7.3864746094    
 1306-43-5       2286.0000000        2319.9045410       -33.904541016    
 1306-48-364     2304.0000000        2332.1918945       -28.191894531    
 1306-56-33      2272.0000000        2305.1867676       -33.186767578    
 1306-60-363     2238.0000000        2252.6584473       -14.658447266    
 1306-66-6       2234.0000000        2234.5502930      -0.55029296875    
 1306-71-60      2246.0000000        2229.1259766        16.874023438    
 1306-71-365     2252.0000000        2230.2253418        21.774658203    
 1307-1-274      2386.0000000        2387.5295410       -1.5295410156    
 1307-11-41      2369.0000000        2378.2141113       -9.2141113281    
 1307-17-41      2375.0000000        2381.1196289       -6.1196289062    
 1307-22-27      2362.0000000        2362.6333008      -0.63330078125    
 1307-26-349     2350.0000000        2358.4360352       -8.4360351562    
 1307-48-364     2309.0000000        2333.5502930       -24.550292969    
 1307-56-33      2279.0000000        2309.0568848       -30.056884766    
 1307-71-60      2253.0000000        2236.1425781        16.857421875    
 1307-71-365     2258.0000000        2236.8679199        21.132080078    
 1304-1-274      2381.0000000        2388.7985840       -7.7985839844    
 1304-11-41      2365.0000000        2379.6171875       -14.617187500    
 1304-17-32      2370.0000000        2382.6376953       -12.637695312    
 1304-22-27      2354.0000000        2364.3935547       -10.393554688    
 1304-26-302     2340.0000000        2359.7836914       -19.783691406    
 1304-48-364     2301.0000000        2335.5053711       -34.505371094    
 1304-56-33      2270.0000000        2310.6352539       -40.635253906    
 1304-60-356     2235.0000000        2260.7446289       -25.744628906    
 1304-71-60      2244.0000000        2237.0002441        6.9997558594    
 1281-12-54      2373.0000000        2379.8505859       -6.8505859375    
 1281-17-41      2377.0000000        2385.4980469       -8.4980468750    
 1281-22-30      2365.0000000        2367.6220703       -2.6220703125    
 1281-32-50      2343.0000000        2353.1745605       -10.174560547    
 1281-37-49      2314.0000000        2324.3662109       -10.366210938    
 1292-1-274      2389.0000000        2390.0344238       -1.0344238281    
 1292-17-46      2376.0000000        2383.6508789       -7.6508789062    
 1292-22-27      2363.0000000        2366.2360840       -3.2360839844    
 1292-26-349     2351.0000000        2361.8029785       -10.802978516    
 1292-43-5       2291.0000000        2322.6181641       -31.618164062    
 1292-48-364     2311.0000000        2337.6845703       -26.684570312    
 1272-1-60       2392.0000000        2393.0117188       -1.0117187500    
 1272-7-176      2374.0000000        2385.6208496       -11.620849609    
 1272-60-363     2245.0000000        2261.9958496       -16.995849609    
 1272-65-348     2241.0000000        2246.4318848       -5.4318847656    
 1272-71-365     2258.0000000        2239.4477539        18.552246094    
 1298-42-362     2292.0000000        2321.1169434       -29.116943359    
 1298-56-10      2279.0000000        2305.5688477       -26.568847656    
 1298-60-363     2244.0000000        2250.0910645       -6.0910644531    
 1298-66-13      2240.0000000        2233.5522461        6.4477539062    
 1298-71-365     2257.0000000        2225.7253418        31.274658203    
 1299-56-10      2280.0000000        2304.6679688       -24.667968750    
 1299-66-13      2240.0000000        2225.4125977        14.587402344    
 1299-71-365     2255.0000000        2220.2846680        34.715332031    
 1294-43-5       2283.0000000        2321.8041992       -38.804199219    
 1294-48-364     2302.0000000        2334.5668945       -32.566894531    
 1294-56-10      2272.0000000        2306.9301758       -34.930175781    
 1294-60-363     2237.0000000        2245.0561523       -8.0561523438    
 1294-66-13      2233.0000000        2228.8867188        4.1132812500    
 1294-71-365     2251.0000000        2223.1970215        27.802978516    
 1296-71-60      2249.0000000        2222.4702148        26.529785156    
 1288-56-10      2281.0000000        2306.9602051       -25.960205078    
 1288-66-13      2242.0000000        2227.6867676        14.313232422    
 1288-71-41      2251.0000000        2218.3723145        32.627685547    
 1288-71-365     2257.0000000        2221.8090820        35.190917969    
 1285-60-361     2244.0000000        2246.9890137       -2.9890136719    
 1285-71-365     2257.0000000        2222.8547363        34.145263672    
 1291-60-361     2243.0000000        2244.7497559       -1.7497558594    
 1291-71-365     2257.0000000        2220.9082031        36.091796875    
 1287-60-361     2245.0000000        2245.1801758      -0.18017578125    
 1287-71-365     2258.0000000        2221.2731934        36.726806641    
 1342-71-62      2342.0000000        2242.6613770        99.338623047    
 1342-71-365     2341.0000000        2241.6982422        99.301757812    
 1346-11-40      2376.0000000        2375.7626953       0.23730468750    
 1346-17-44      2376.0000000        2374.7221680        1.2778320312    
 1346-22-27      2364.0000000        2362.3291016        1.6708984375    
 1346-27-59      2357.0000000        2351.1760254        5.8239746094    
 1346-32-50      2357.0000000        2342.1640625        14.835937500    
 1346-42-362     2298.0000000        2317.3793945       -19.379394531    
 1346-48-357     2313.0000000        2326.3132324       -13.313232422    
 1346-56-32      2285.0000000        2303.5698242       -18.569824219    
 1346-60-363     2302.0000000        2264.4567871        37.543212891    
 1346-71-62      2262.0000000        2237.9162598        24.083740234    
 1346-71-365     2268.0000000        2237.1313477        30.868652344    
 1351-71-62      2310.0000000        2238.4428711        71.557128906    
 1351-71-365     2310.0000000        2237.6105957        72.389404297    
 1305-12-57      2382.0000000        2382.1599121      -0.15991210938    
 1305-17-46      2384.0000000        2381.6809082        2.3190917969    
 1305-22-27      2366.0000000        2369.4636230       -3.4636230469    
 1305-42-362     2294.0000000        2322.0205078       -28.020507812    
 1305-48-357     2312.0000000        2333.5322266       -21.532226562    
 1305-55-357     2285.0000000        2308.0063477       -23.006347656    
 1305-60-342     2251.0000000        2259.0039062       -8.0039062500    
 1305-66-59      2248.0000000        2242.8015137        5.1984863281    
 1305-71-20      2255.0000000        2232.4201660        22.579833984    
 1305-71-365     2261.0000000        2232.9572754        28.042724609    
 1286-1-91       2419.0000000        2395.3481445        23.651855469    
 1284-60-361     2246.0000000        2247.9460449       -1.9460449219    
 1284-65-356     2240.0000000        2233.0383301        6.9616699219    
 1284-71-365     2258.0000000        2223.9841309        34.015869141    
 1271-42-362     2294.0000000        2326.0981445       -32.098144531    
 1271-56-10      2284.0000000        2311.7031250       -27.703125000    
 1271-60-363     2250.0000000        2255.6979980       -5.6979980469    
 1271-66-13      2244.0000000        2241.1379395        2.8620605469    
 1271-71-62      2255.0000000        2228.9353027        26.064697266    
 1271-71-365     2259.0000000        2230.5976562        28.402343750    
 1293-56-10      2282.0000000        2305.3242188       -23.324218750    
 1293-66-13      2243.0000000        2233.2978516        9.7021484375    
 1293-71-47      2251.0000000        2221.9106445        29.089355469    
 1293-71-365     2257.0000000        2223.9980469        33.001953125    
 1898-10-252     2397.0000000        2413.3903809       -16.390380859    
 1873-10-252     2394.0000000        2409.0974121       -15.097412109    
 1763-10-252     2409.0000000        2415.6000977       -6.6000976562    
 1762-7-161      2417.0000000        2424.4514160       -7.4514160156    
 1762-22-60      2383.0000000        2391.8283691       -8.8283691406    
 1776-42-355     2284.0000000        2320.4458008       -36.445800781    
 1776-56-27      2238.0000000        2288.6127930       -50.612792969    
 1776-66-54      2214.0000000        2281.5659180       -67.565917969    
 1776-71-64      2224.0000000        2288.8422852       -64.842285156    
 1776-71-365     2228.0000000        2289.4377441       -61.437744141    
 1775-42-355     2284.0000000        2321.2272949       -37.227294922    
 1775-56-27      2239.0000000        2288.0075684       -49.007568359    
 1775-66-54      2213.0000000        2281.1059570       -68.105957031    
 1775-71-64      2224.0000000        2288.6992188       -64.699218750    
 1775-71-365     2228.0000000        2289.3105469       -61.310546875    
 1905-10-252     2395.0000000        2400.8076172       -5.8076171875    
 1875-10-252     2391.0000000        2395.4318848       -4.4318847656    
 1877-22-79      2360.0000000        2369.7468262       -9.7468261719    
 1877-42-356     2273.0000000        2297.8559570       -24.855957031    
 1877-48-355     2238.0000000        2264.8117676       -26.811767578    
 1877-66-59      2185.0000000        2252.6179199       -67.617919922    
 1877-71-64      2205.0000000        2262.9067383       -57.906738281    
 1877-71-365     2210.0000000        2264.1047363       -54.104736328    
 1878-42-356     2273.0000000        2298.5749512       -25.574951172    
 1878-48-356     2239.0000000        2261.8671875       -22.867187500    
 1878-56-10      2207.0000000        2252.2065430       -45.206542969    
 1878-61-26      2176.0000000        2236.5893555       -60.589355469    
 1878-66-59      2186.0000000        2253.1049805       -67.104980469    
 1878-71-64      2207.0000000        2263.6440430       -56.644042969    
 1878-71-365     2211.0000000        2264.8391113       -53.839111328    
 1926-42-363     2274.0000000        2288.7360840       -14.736083984    
 1886-22-79      2353.0000000        2361.8176270       -8.8176269531    
 1886-26-349     2341.0000000        2347.5056152       -6.5056152344    
 1886-42-362     2271.0000000        2290.8044434       -19.804443359    
 1886-48-357     2237.0000000        2258.4089355       -21.408935547    
 1886-56-24      2201.0000000        2247.0393066       -46.039306641    
 1886-66-1       2173.0000000        2241.3679199       -68.367919922    
 1886-71-62      2198.0000000        2253.3666992       -55.366699219    
 1886-71-365     2203.0000000        2255.0651855       -52.065185547    
 1852-10-255     2390.0000000        2393.5366211       -3.5366210938    
 1822-10-255     2384.0000000        2389.0490723       -5.0490722656    
 1786-66-19      2167.0000000        2238.2429199       -71.242919922    
 1786-71-33      2188.0000000        2251.9992676       -63.999267578    
 1786-71-365     2192.0000000        2253.4143066       -61.414306641    
 1851-10-252     2391.0000000        2401.9812012       -10.981201172    
 1791-12-116     2390.0000000        2396.8127441       -6.8127441406    
 1791-22-79      2356.0000000        2368.5646973       -12.564697266    
 1791-26-294     2344.0000000        2354.8930664       -10.893066406    
 1791-42-356     2270.0000000        2295.7187500       -25.718750000    
 1791-48-356     2235.0000000        2257.9062500       -22.906250000    
 1791-66-56      2187.0000000        2250.1345215       -63.134521484    
 1791-71-33      2203.0000000        2261.2724609       -58.272460938    
 1791-71-365     2208.0000000        2262.1115723       -54.111572266    
 1785-42-356     2271.0000000        2295.8745117       -24.874511719    
 1785-48-356     2235.0000000        2258.2438965       -23.243896484    
 1785-56-10      2212.0000000        2248.7565918       -36.756591797    
 1785-61-26      2173.0000000        2231.2106934       -58.210693359    
 1785-66-56      2186.0000000        2250.2773438       -64.277343750    
 1785-71-33      2203.0000000        2261.3796387       -58.379638672    
 1785-71-365     2208.0000000        2262.2612305       -54.261230469    
 1928-10-256     2381.0000000        2380.6494141       0.35058593750    
 1879-12-111     2376.0000000        2379.5300293       -3.5300292969    
 1879-22-79      2350.0000000        2353.2145996       -3.2145996094    
 1879-42-362     2268.0000000        2280.5886230       -12.588623047    
 1879-48-357     2235.0000000        2250.1101074       -15.110107422    
 1879-55-353     2199.0000000        2233.1374512       -34.137451172    
 1879-60-313     2201.0000000        2213.2802734       -12.280273438    
 1879-71-49      2192.0000000        2243.0168457       -51.016845703    
 1879-71-365     2198.0000000        2245.1291504       -47.129150391    
 1824-10-256     2376.0000000        2373.2514648        2.7485351562    
 1811-7-156      2379.0000000        2374.1330566        4.8669433594    
 1811-22-79      2341.0000000        2338.8295898        2.1704101562    
 1811-32-32      2314.0000000        2309.9804688        4.0195312500    
 1811-48-357     2232.0000000        2239.6000977       -7.6000976562    
 1811-55-354     2190.0000000        2216.5791016       -26.579101562    
 1811-60-349     2149.0000000        2194.1350098       -45.135009766    
 1811-65-355     2161.0000000        2210.1684570       -49.168457031    
 1811-71-68      2187.0000000        2225.9101562       -38.910156250    
 1811-71-365     2193.0000000        2228.2937012       -35.293701172    
 1777-10-256     2378.0000000        2373.3195801        4.6804199219    
 1823-42-362     2268.0000000        2276.0373535       -8.0373535156    
 1823-48-357     2235.0000000        2246.5283203       -11.528320312    
 1823-56-32      2194.0000000        2223.9157715       -29.915771484    
 1823-60-313     2165.0000000        2205.5192871       -40.519287109    
 1823-66-19      2171.0000000        2224.7219238       -53.721923828    
 1823-71-49      2194.0000000        2239.4328613       -45.432861328    
 1823-71-365     2200.0000000        2241.7844238       -41.784423828    
 1744-10-256     2381.0000000        2378.3566895        2.6433105469    
 1907-12-116     2361.0000000        2361.4226074      -0.42260742188    
 1907-22-79      2337.0000000        2337.7895508      -0.78955078125    
 1907-42-362     2259.0000000        2262.2868652       -3.2868652344    
 1907-48-357     2229.0000000        2238.4270020       -9.4270019531    
 1907-71-365     2189.0000000        2226.1591797       -37.159179688    
 1906-42-362     2259.0000000        2262.3964844       -3.3964843750    
 1906-48-357     2230.0000000        2238.7392578       -8.7392578125    
 1906-55-356     2188.0000000        2219.2910156       -31.291015625    
 1906-60-341     2164.0000000        2199.4616699       -35.461669922    
 1906-65-355     2153.0000000        2208.7448730       -55.744873047    
 1906-71-32      2182.0000000        2224.1621094       -42.162109375    
 1906-71-365     2189.0000000        2226.7521973       -37.752197266    
 1899-66-19      2159.0000000        2196.2529297       -37.252929688    
 1899-71-32      2181.0000000        2213.6843262       -32.684326172    
 1899-71-365     2188.0000000        2216.4426270       -28.442626953    
 1778-12-261     2348.0000000        2355.5720215       -7.5720214844    
 1764-10-257     2360.0000000        2358.1142578        1.8857421875    
 1765-42-362     2257.0000000        2255.0793457        1.9206542969    
 1765-48-357     2229.0000000        2231.3635254       -2.3635253906    
 1765-55-354     2179.0000000        2205.9389648       -26.938964844    
 1765-60-349     2153.0000000        2186.9104004       -33.910400391    
 1765-66-56      2160.0000000        2194.7072754       -34.707275391    
 1765-71-32      2181.0000000        2212.6938477       -31.693847656    
 1765-71-365     2188.0000000        2214.9716797       -26.971679688    
 1816-10-153     2360.0000000        2364.7880859       -4.7880859375    
 1825-42-335     2255.0000000        2261.9213867       -6.9213867188    
 1825-48-357     2225.0000000        2236.3818359       -11.381835938    
 1825-56-27      2180.0000000        2210.8195801       -30.819580078    
 1825-61-42      2142.0000000        2190.1682129       -48.168212891    
 1825-66-19      2156.0000000        2205.1728516       -49.172851562    
 1825-71-32      2178.0000000        2221.1413574       -43.141357422    
 1825-71-365     2185.0000000        2223.7795410       -38.779541016    
 1888-22-79      2317.0000000        2318.2253418       -1.2253417969    
 1888-32-32      2295.0000000        2288.9025879        6.0974121094    
 1888-42-362     2247.0000000        2241.6340332        5.3659667969    
 1888-48-357     2222.0000000        2221.9040527       9.59472656250E-02
 1888-65-355     2147.0000000        2183.4252930       -36.425292969    
 1888-71-32      2173.0000000        2202.4377441       -29.437744141    
 1888-71-365     2179.0000000        2204.5402832       -25.540283203    
 1890-42-362     2247.0000000        2240.8339844        6.1660156250    
 1890-48-357     2222.0000000        2221.5412598       0.45874023438    
 1890-55-350     2180.0000000        2197.4382324       -17.438232422    
 1890-61-42      2153.0000000        2180.4541016       -27.454101562    
 1890-66-19      2152.0000000        2183.5219727       -31.521972656    
 1890-71-32      2176.0000000        2202.2104492       -26.210449219    
 1890-71-365     2180.0000000        2204.3317871       -24.331787109    
 1812-12-91      2340.0000000        2343.2700195       -3.2700195312    
 1812-22-62      2314.0000000        2317.4738770       -3.4738769531    
 1812-32-60      2298.0000000        2290.4592285        7.5407714844    
 1827-42-362     2250.0000000        2246.4782715        3.5217285156    
 1827-48-357     2224.0000000        2224.8383789      -0.83837890625    
 1827-56-25      2183.0000000        2199.8825684       -16.882568359    
 1827-61-42      2153.0000000        2182.1464844       -29.146484375    
 1827-66-19      2155.0000000        2185.4460449       -30.446044922    
 1827-71-32      2178.0000000        2203.5981445       -25.598144531    
 1827-71-365     2184.0000000        2205.7863770       -21.786376953    
 1779-12-109     2333.0000000        2340.6096191       -7.6096191406    
 1779-17-80      2325.0000000        2331.2292480       -6.2292480469    
 1779-22-79      2314.0000000        2314.6738281      -0.67382812500    
 1779-42-362     2247.0000000        2244.1269531        2.8730468750    
 1870-42-364     2234.0000000        2236.4592285       -2.4592285156    
 1817-56-20      2185.0000000        2199.9580078       -14.958007812    
 1817-66-34      2159.0000000        2180.6135254       -21.613525391    
 1747-71-60      2179.0000000        2190.5705566       -11.570556641    
 1722-1-152      2342.0000000        2343.2387695       -1.2387695312    
 1722-22-80      2297.0000000        2306.2150879       -9.2150878906    
 1722-26-349     2292.0000000        2295.7155762       -3.7155761719    
 1722-32-32      2282.0000000        2283.7546387       -1.7546386719    
 1722-42-362     2237.0000000        2244.8999023       -7.8999023438    
 1722-48-357     2221.0000000        2228.4123535       -7.4123535156    
 1722-56-24      2192.0000000        2206.3642578       -14.364257812    
 1722-61-11      2180.0000000        2191.7524414       -11.752441406    
 1722-66-59      2175.0000000        2187.3427734       -12.342773438    
 1722-71-56      2178.0000000        2196.3652344       -18.365234375    
 1722-71-365     2182.0000000        2198.5095215       -16.509521484    
 1668-56-20      2191.0000000        2209.3967285       -18.396728516    
 1666-66-34      2190.0000000        2190.6108398      -0.61083984375    
 1718-56-20      2187.0000000        2207.5451660       -20.545166016    
 1718-61-59      2146.0000000        2194.1003418       -48.100341797    
 1718-66-34      2164.0000000        2186.7241211       -22.724121094    
 1662-56-20      2204.0000000        2213.1994629       -9.1994628906    
 1664-66-34      2183.0000000        2190.4675293       -7.4675292969    
 1664-71-60      2192.0000000        2192.8632812      -0.86328125000    
 1641-66-34      2201.0000000        2193.3408203        7.6591796875    
 1619-1-365      2394.0000000        2350.3579102        43.642089844    
 1619-8-57       2377.0000000        2342.6813965        34.318603516    
 1619-12-59      2359.0000000        2335.8779297        23.122070312    
 1619-17-87      2354.0000000        2325.7478027        28.252197266    
 1619-22-79      2342.0000000        2310.5864258        31.413574219    
 1619-42-335     2296.0000000        2253.3901367        42.609863281    
 1608-35-121     2274.0000000        2276.5803223       -2.5803222656    
 1608-42-362     2247.0000000        2254.9655762       -7.9655761719    
 1608-48-357     2236.0000000        2241.1333008       -5.1333007812    
 1608-55-340     2209.0000000        2218.9992676       -9.9992675781    
 1608-60-348     2202.0000000        2205.4069824       -3.4069824219    
 1608-66-5       2200.0000000        2198.5075684        1.4924316406    
 1608-71-1       2203.0000000        2203.2043457      -0.20434570312    
 1608-71-365     2204.0000000        2205.1701660       -1.1701660156    
 1714-56-33      2195.0000000        2204.6430664       -9.6430664062    
 1714-71-29      2178.0000000        2203.2053223       -25.205322266    
 1714-71-365     2182.0000000        2205.4904785       -23.490478516    
 1715-66-59      2166.0000000        2188.4611816       -22.461181641    
 1715-71-29      2178.0000000        2203.2053223       -25.205322266    
 1715-71-365     2183.0000000        2205.4904785       -22.490478516    
 1716-66-59      2166.0000000        2188.2446289       -22.244628906    
 1716-71-29      2177.0000000        2201.9670410       -24.967041016    
 1716-71-365     2181.0000000        2204.2780762       -23.278076172    
 1717-71-32      2177.0000000        2202.0678711       -25.067871094    
 1717-71-365     2181.0000000        2204.2927246       -23.292724609    
 1689-71-29      2180.0000000        2202.5520020       -22.552001953    
 1689-71-365     2183.0000000        2204.8825684       -21.882568359    
 1696-66-59      2170.0000000        2189.5183105       -19.518310547    
 1696-71-29      2180.0000000        2202.5520020       -22.552001953    
 1696-71-365     2183.0000000        2204.8825684       -21.882568359    
 1673-2-274      2365.0000000        2361.1875000        3.8125000000    
 1673-8-57       2356.0000000        2354.5683594        1.4316406250    
 1673-12-59      2341.0000000        2348.6262207       -7.6262207031    
 1673-17-87      2331.0000000        2338.5324707       -7.5324707031    
 1673-22-79      2324.0000000        2322.0527344        1.9472656250    
 1673-42-363     2258.0000000        2254.0822754        3.9177246094    
 1673-48-357     2234.0000000        2233.6999512       0.30004882812    
 1673-56-24      2195.0000000        2208.6430664       -13.643066406    
 1723-1-32       2370.0000000        2352.9458008        17.054199219    
 1723-12-59      2331.0000000        2340.3718262       -9.3718261719    
 1723-17-87      2319.0000000        2330.7006836       -11.700683594    
 1723-22-80      2306.0000000        2315.2048340       -9.2048339844    
 1723-42-363     2250.0000000        2248.6938477        1.3061523438    
 1723-48-357     2231.0000000        2228.1123047        2.8876953125    
 1723-56-24      2195.0000000        2204.5283203       -9.5283203125    
 1723-60-348     2174.0000000        2188.7153320       -14.715332031    
 1723-66-59      2169.0000000        2188.0769043       -19.076904297    
 1723-71-32      2180.0000000        2201.7226562       -21.722656250    
 1723-71-365     2185.0000000        2203.9545898       -18.954589844    
 1724-1-365      2346.0000000        2349.6870117       -3.6870117188    
 1724-12-59      2327.0000000        2337.0576172       -10.057617188    
 1724-17-82      2317.0000000        2327.4545898       -10.454589844    
 1724-22-80      2304.0000000        2312.3398438       -8.3398437500    
 1724-42-363     2247.0000000        2247.3525391      -0.35253906250    
 1724-48-357     2230.0000000        2228.4309082        1.5690917969    
 1724-56-20      2196.0000000        2205.4477539       -9.4477539062    
 1724-60-348     2180.0000000        2190.3261719       -10.326171875    
 1724-66-59      2175.0000000        2187.8686523       -12.868652344    
 1724-71-56      2182.0000000        2199.8205566       -17.820556641    
 1724-71-365     2186.0000000        2201.9155273       -15.915527344    
 1694-17-82      2345.0000000        2353.4521484       -8.4521484375    
 1694-22-80      2332.0000000        2333.6286621       -1.6286621094    
 1699-42-363     2258.0000000        2264.7062988       -6.7062988281    
 1699-48-357     2227.0000000        2238.2248535       -11.224853516    
 1699-55-356     2177.0000000        2211.9523926       -34.952392578    
 1699-60-349     2146.0000000        2189.5715332       -43.571533203    
 1699-66-56      2161.0000000        2206.9160156       -45.916015625    
 1699-71-32      2177.0000000        2221.8041992       -44.804199219    
 1699-71-365     2185.0000000        2224.3447266       -39.344726562    
 1695-7-158      2368.0000000        2367.7275391       0.27246093750    
 1695-42-363     2263.0000000        2261.9040527        1.0959472656    
 1695-48-357     2234.0000000        2236.5781250       -2.5781250000    
 1695-56-24      2185.0000000        2209.5146484       -24.514648438    
 1695-60-336     2192.0000000        2189.5107422        2.4892578125    
 1695-66-56      2168.0000000        2203.0187988       -35.018798828    
 1695-71-56      2184.0000000        2218.4526367       -34.452636719    
 1695-71-365     2190.0000000        2220.7451172       -30.745117188    
 1658-2-217      2372.0000000        2366.0651855        5.9348144531    
 1658-8-58       2367.0000000        2359.6848145        7.3151855469    
 1658-12-59      2352.0000000        2353.2497559       -1.2497558594    
 1658-17-87      2338.0000000        2342.1848145       -4.1848144531    
 1658-22-81      2328.0000000        2325.1618652        2.8381347656    
 1652-42-363     2266.0000000        2260.0268555        5.9731445312    
 1652-48-357     2241.0000000        2237.7556152        3.2443847656    
 1652-56-24      2202.0000000        2212.8269043       -10.826904297    
 1652-60-349     2177.0000000        2194.1560059       -17.156005859    
 1652-66-1       2177.0000000        2199.3254395       -22.325439453    
 1652-71-76      2192.0000000        2213.7663574       -21.766357422    
 1652-71-365     2196.0000000        2215.8425293       -19.842529297    
 1633-12-96      2371.0000000        2365.0629883        5.9370117188    
 1633-17-89      2356.0000000        2354.5317383        1.4682617188    
 1633-42-355     2266.0000000        2269.8994141       -3.8994140625    
 1713-61-54      2157.0000000        2201.0729980       -44.072998047    
 1713-66-56      2183.0000000        2226.0959473       -43.095947266    
 1713-71-64      2202.0000000        2241.4909668       -39.490966797    
 1713-71-365     2207.0000000        2243.2275391       -36.227539062    
 1670-42-357     2269.0000000        2275.9645996       -6.9645996094    
 1656-22-80      2344.0000000        2342.9953613        1.0046386719    
 1656-31-351     2319.0000000        2317.9663086        1.0336914062    
 1656-37-343     2281.0000000        2289.5939941       -8.5939941406    
 1656-55-360     2198.0000000        2224.2534180       -26.253417969    
 1656-61-42      2155.0000000        2195.3454590       -40.345458984    
 1656-66-56      2179.0000000        2221.3415527       -42.341552734    
 1656-71-33      2195.0000000        2236.0825195       -41.082519531    
 1656-71-365     2200.0000000        2238.2900391       -38.290039062    
 1655-17-89      2365.0000000        2369.5541992       -4.5541992188    
 1655-22-80      2348.0000000        2345.1811523        2.8188476562    
 1655-42-355     2271.0000000        2277.6174316       -6.6174316406    
 1655-48-364     2236.0000000        2244.2077637       -8.2077636719    
 1651-42-362     2268.0000000        2271.2619629       -3.2619628906    
 1651-48-355     2239.0000000        2243.0317383       -4.0317382812    
 1657-60-349     2162.0000000        2195.5969238       -33.596923828    
 1657-66-56      2177.0000000        2215.1010742       -38.101074219    
 1657-71-32      2193.0000000        2228.7255859       -35.725585938    
 1657-71-365     2198.0000000        2231.0039062       -33.003906250    
 1614-12-96      2380.0000000        2380.6381836      -0.63818359375    
 1614-17-89      2369.0000000        2368.3388672       0.66113281250    
 1614-22-80      2347.0000000        2345.0241699        1.9758300781    
 1615-17-89      2366.0000000        2368.0229492       -2.0229492188    
 1615-22-80      2347.0000000        2344.8164062        2.1835937500    
 1615-42-356     2273.0000000        2280.4067383       -7.4067382812    
 1615-48-355     2242.0000000        2249.3376465       -7.3376464844    
 1615-56-20      2207.0000000        2228.3203125       -21.320312500    
 1615-61-31      2163.0000000        2200.5893555       -37.589355469    
 1615-66-56      2186.0000000        2224.0231934       -38.023193359    
 1615-71-33      2200.0000000        2237.4621582       -37.462158203    
 1615-71-365     2204.0000000        2239.3803711       -35.380371094    
 1611-42-356     2272.0000000        2281.7221680       -9.7221679688    
 1611-48-355     2241.0000000        2250.4855957       -9.4855957031    
 1611-56-20      2207.0000000        2228.5068359       -21.506835938    
 1611-61-31      2163.0000000        2200.9545898       -37.954589844    
 1611-66-56      2185.0000000        2225.6330566       -40.633056641    
 1611-71-33      2199.0000000        2238.9492188       -39.949218750    
 1611-71-365     2204.0000000        2240.6875000       -36.687500000    
 1708-42-357     2272.0000000        2293.4807129       -21.480712891    
 1708-48-341     2223.0000000        2256.4528809       -33.452880859    
 1693-17-87      2379.0000000        2386.7695312       -7.7695312500    
 1693-22-79      2362.0000000        2367.8708496       -5.8708496094    
 1693-42-356     2271.0000000        2290.8007812       -19.800781250    
 1693-48-356     2236.0000000        2253.7629395       -17.762939453    
 1687-42-356     2273.0000000        2294.0229492       -21.022949219    
 1687-48-356     2238.0000000        2257.4277344       -19.427734375    
 1687-56-27      2207.0000000        2248.2377930       -41.237792969    
 1687-61-26      2181.0000000        2229.3552246       -48.355224609    
 1687-66-56      2192.0000000        2250.5197754       -58.519775391    
 1687-71-33      2207.0000000        2261.4597168       -54.459716797    
 1687-71-365     2212.0000000        2262.0598145       -50.059814453    
 1681-17-87      2373.0000000        2378.0378418       -5.0378417969    
 1681-22-79      2354.0000000        2358.0202637       -4.0202636719    
 1681-26-294     2343.0000000        2346.5659180       -3.5659179688    
 1681-48-356     2235.0000000        2246.6977539       -11.697753906    
 1681-66-56      2184.0000000        2236.2866211       -52.286621094    
 1681-71-33      2201.0000000        2250.0632324       -49.063232422    
 1681-71-365     2202.0000000        2251.1909180       -49.190917969    
 1688-42-356     2269.0000000        2284.9948730       -15.994873047    
 1688-48-356     2235.0000000        2250.0095215       -15.009521484    
 1688-55-364     2210.0000000        2237.0019531       -27.001953125    
 1688-61-21      2182.0000000        2210.6655273       -28.665527344    
 1688-66-56      2184.0000000        2236.3015137       -52.301513672    
 1688-71-33      2201.0000000        2249.8464355       -48.846435547    
 1688-71-365     2203.0000000        2251.0874023       -48.087402344    
 1596-12-96      2385.0000000        2389.8347168       -4.8347167969    
 1596-22-81      2353.0000000        2354.5583496       -1.5583496094    
 1596-42-356     2271.0000000        2279.0937500       -8.0937500000    
 1621-42-356     2275.0000000        2282.8852539       -7.8852539062    
 1621-48-356     2242.0000000        2250.7368164       -8.7368164062    
 1621-56-6       2216.0000000        2236.0007324       -20.000732422    
 1621-61-42      2165.0000000        2208.4526367       -43.452636719    
 1621-65-355     2189.0000000        2235.4099121       -46.409912109    
 1621-71-33      2206.0000000        2248.4287109       -42.428710938    
 1621-71-365     2209.0000000        2249.4597168       -40.459716797    
 1605-11-45      2405.0000000        2392.7336426        12.266357422    
 1630-17-87      2382.0000000        2387.8466797       -5.8466796875    
 1630-22-79      2366.0000000        2366.8540039      -0.85400390625    
 1630-42-355     2277.0000000        2286.2580566       -9.2580566406    
 1630-48-356     2242.0000000        2257.3884277       -15.388427734    
 1630-66-59      2198.0000000        2249.9042969       -51.904296875    
 1630-71-33      2210.0000000        2260.6401367       -50.640136719    
 1630-71-365     2211.0000000        2260.8569336       -49.856933594    
 1629-42-355     2274.0000000        2294.5261230       -20.526123047    
 1629-48-356     2242.0000000        2259.6540527       -17.654052734    
 1629-56-9       2225.0000000        2249.4326172       -24.432617188    
 1629-61-21      2198.0000000        2227.1828613       -29.182861328    
 1629-66-59      2199.0000000        2250.7036133       -51.703613281    
 1629-71-33      2211.0000000        2261.1499023       -50.149902344    
 1629-71-365     2213.0000000        2261.5593262       -48.559326172    
 1683-22-79      2379.0000000        2387.2817383       -8.2817382812    
 1683-26-349     2360.0000000        2371.8439941       -11.843994141    
 1683-42-355     2286.0000000        2310.6462402       -24.646240234    
 1683-48-355     2256.0000000        2281.3764648       -25.376464844    
 1683-56-27      2237.0000000        2281.4072266       -44.407226562    
 1683-60-349     2213.0000000        2267.3808594       -54.380859375    
 1683-66-54      2213.0000000        2274.7832031       -61.783203125    
 1679-42-355     2286.0000000        2314.4809570       -28.480957031    
 1679-48-355     2251.0000000        2281.3764648       -30.376464844    
 1679-56-27      2238.0000000        2281.4072266       -43.407226562    
 1679-61-11      2213.0000000        2267.2324219       -54.232421875    
 1680-66-54      2212.0000000        2274.7595215       -62.759521484    
 1654-42-355     2280.0000000        2303.1564941       -23.156494141    
 1654-48-355     2244.0000000        2267.3964844       -23.396484375    
 1654-56-27      2225.0000000        2265.7377930       -40.737792969    
 1654-61-14      2198.0000000        2248.5666504       -50.566650391    
 1654-66-54      2206.0000000        2262.7365723       -56.736572266    
 1654-71-64      2218.0000000        2271.9982910       -53.998291016    
 1654-71-365     2221.0000000        2272.2148438       -51.214843750    
 1660-42-355     2279.0000000        2303.1564941       -24.156494141    
 1660-48-355     2243.0000000        2267.3964844       -24.396484375    
 1660-56-27      2224.0000000        2265.7377930       -41.737792969    
 1660-60-349     2198.0000000        2248.6669922       -50.666992188    
 1660-66-54      2205.0000000        2262.7365723       -57.736572266    
 1660-71-64      2218.0000000        2271.9982910       -53.998291016    
 1660-71-365     2221.0000000        2272.2148438       -51.214843750    
 1554-22-81      2379.0000000        2388.2229004       -9.2229003906    
 1554-27-15      2357.0000000        2363.1557617       -6.1557617188    
 1554-32-60      2340.0000000        2357.6628418       -17.662841797    
 1554-56-26      2254.0000000        2285.2763672       -31.276367188    
 1554-61-12      2230.0000000        2267.0908203       -37.090820312    
 1554-66-59      2227.0000000        2277.1276855       -50.127685547    
 1554-71-54      2233.0000000        2284.2832031       -51.283203125    
 1554-71-365     2236.0000000        2284.5568848       -48.556884766    
 1504-22-60      2375.0000000        2392.2011719       -17.201171875    
 1548-7-158      2406.0000000        2411.8740234       -5.8740234375    
 1548-11-82      2402.0000000        2405.8422852       -3.8422851562    
 1548-17-87      2380.0000000        2388.8369141       -8.8369140625    
 1548-22-81      2365.0000000        2367.1362305       -2.1362304688    
 1548-26-278     2343.0000000        2352.3256836       -9.3256835938    
 1550-48-365     2255.0000000        2273.4113770       -18.411376953    
 1550-56-6       2225.0000000        2259.0954590       -34.095458984    
 1550-61-27      2193.0000000        2230.2023926       -37.202392578    
 1550-66-28      2206.0000000        2250.6948242       -44.694824219    
 1550-71-13      2215.0000000        2261.6965332       -46.696533203    
 1550-71-365     2219.0000000        2261.6281738       -42.628173828    
 1559-66-46      2194.0000000        2240.4006348       -46.400634766    
 1559-71-365     2207.0000000        2251.9360352       -44.936035156    
 1569-32-60      2330.0000000        2336.4135742       -6.4135742188    
 1569-37-89      2305.0000000        2312.2390137       -7.2390136719    
 1569-42-356     2281.0000000        2294.6728516       -13.672851562    
 1569-48-355     2252.0000000        2266.9609375       -14.960937500    
 1569-56-26      2222.0000000        2252.6884766       -30.688476562    
 1569-61-24      2180.0000000        2222.6379395       -42.637939453    
 1569-66-28      2199.0000000        2246.2851562       -47.285156250    
 1569-71-365     2215.0000000        2257.4780273       -42.478027344    
 1540-17-86      2377.0000000        2387.0515137       -10.051513672    
 1540-22-81      2362.0000000        2364.7414551       -2.7414550781    
 1540-26-279     2342.0000000        2350.6687012       -8.6687011719    
 1540-42-355     2284.0000000        2302.2431641       -18.243164062    
 1540-48-355     2257.0000000        2275.0444336       -18.044433594    
 1540-56-26      2232.0000000        2259.5593262       -27.559326172    
 1540-60-350     2200.0000000        2229.9887695       -29.988769531    
 1540-66-28      2205.0000000        2250.4252930       -45.425292969    
 1540-71-365     2218.0000000        2261.0534668       -43.053466797    
 1526-17-87      2378.0000000        2387.8242188       -9.8242187500    
 1526-22-81      2363.0000000        2365.6704102       -2.6704101562    
 1526-26-349     2384.0000000        2350.6977539        33.302246094    
 1526-32-60      2329.0000000        2341.7832031       -12.783203125    
 1526-42-356     2289.0000000        2306.1760254       -17.176025391    
 1526-48-355     2269.0000000        2278.3325195       -9.3325195312    
 1526-56-26      2243.0000000        2262.3928223       -19.392822266    
 1526-60-350     2211.0000000        2234.4592285       -23.459228516    
 1526-65-355     2210.0000000        2251.2810059       -41.281005859    
 1526-71-362     2219.0000000        2261.2941895       -42.294189453    
 1518-42-357     2288.0000000        2307.7077637       -19.707763672    
 1517-71-53      2226.0000000        2272.7136230       -46.713623047    
 1517-71-365     2228.0000000        2272.9750977       -44.975097656    
 1564-56-26      2224.0000000        2242.1271973       -18.127197266    
 1564-71-365     2211.0000000        2247.2119141       -36.211914062    
 1552-12-59      2387.0000000        2379.5302734        7.4697265625    
 1552-17-85      2369.0000000        2364.8012695        4.1987304688    
 1552-22-80      2348.0000000        2342.1525879        5.8474121094    
 1557-42-356     2279.0000000        2285.6848145       -6.6848144531    
 1557-48-355     2255.0000000        2258.0100098       -3.0100097656    
 1557-56-20      2229.0000000        2237.5629883       -8.5629882812    
 1557-71-13      2210.0000000        2233.6081543       -23.608154297    
 1557-71-365     2214.0000000        2236.1423340       -22.142333984    
 1570-2-98       2390.0000000        2390.6284180      -0.62841796875    
 1631-12-96      2393.0000000        2385.4289551        7.5710449219    
 1631-17-87      2379.0000000        2370.9702148        8.0297851562    
 1631-22-80      2357.0000000        2348.9772949        8.0227050781    
 1631-26-279     2340.0000000        2336.6577148        3.3422851562    
 1631-42-355     2287.0000000        2292.9223633       -5.9223632812    
 1631-48-355     2262.0000000        2268.9719238       -6.9719238281    
 1631-56-26      2241.0000000        2250.5578613       -9.5578613281    
 1631-66-32      2212.0000000        2231.4794922       -19.479492188    
 1631-71-33      2220.0000000        2242.1511230       -22.151123047    
 1631-71-365     2226.0000000        2243.7880859       -17.788085938    
 1519-42-355     2288.0000000        2293.2114258       -5.2114257812    
 1519-48-355     2265.0000000        2265.3576660      -0.35766601562    
 1519-56-20      2242.0000000        2246.2458496       -4.2458496094    
 1519-61-18      2212.0000000        2220.0661621       -8.0661621094    
 1519-66-32      2212.0000000        2230.0100098       -18.010009766    
 1519-71-33      2222.0000000        2241.9645996       -19.964599609    
 1519-71-365     2225.0000000        2243.4394531       -18.439453125    
 1542-56-20      2230.0000000        2248.1579590       -18.157958984    
 1542-60-350     2189.0000000        2219.7495117       -30.749511719    
 1542-66-54      2201.0000000        2237.8200684       -36.820068359    
 1542-71-13      2211.0000000        2248.8601074       -37.860107422    
 1542-71-365     2215.0000000        2249.8830566       -34.883056641    
 1520-17-87      2376.0000000        2376.8305664      -0.83056640625    
 1520-22-80      2358.0000000        2353.3254395        4.6745605469    
 1520-32-60      2328.0000000        2332.1931152       -4.1931152344    
 1520-42-356     2288.0000000        2300.1682129       -12.168212891    
 1597-56-27      2221.0000000        2229.4289551       -8.4289550781    
 1597-66-26      2193.0000000        2215.6958008       -22.695800781    
 1597-71-28      2205.0000000        2228.1684570       -23.168457031    
 1597-71-365     2208.0000000        2230.6884766       -22.688476562    
 1581-11-256     2383.0000000        2373.4436035        9.5563964844    
 1583-56-27      2226.0000000        2228.7324219       -2.7324218750    
 1583-66-26      2197.0000000        2210.2675781       -13.267578125    
 1583-71-28      2207.0000000        2221.6325684       -14.632568359    
 1583-71-29      2209.0000000        2221.6416016       -12.641601562    
 1583-71-365     2210.0000000        2224.2263184       -14.226318359    
 1583-71-365     2210.0000000        2224.2263184       -14.226318359    
 1565-71-28      2215.0000000        2231.1076660       -16.107666016    
 1565-71-365     2217.0000000        2233.1203613       -16.120361328    
 1595-11-257     2369.0000000        2363.9333496        5.0666503906    
 1533-8-65       2373.0000000        2368.5354004        4.4645996094    
 1533-12-96      2366.0000000        2359.4890137        6.5109863281    
 1533-17-82      2354.0000000        2347.7941895        6.2058105469    
 1533-22-80      2339.0000000        2330.6374512        8.3625488281    
 1533-27-15      2324.0000000        2318.4892578        5.5107421875    
 1533-42-363     2280.0000000        2275.8857422        4.1142578125    
 1537-42-363     2277.0000000        2274.2832031        2.7167968750    
 1537-48-357     2262.0000000        2252.2290039        9.7709960938    
 1541-66-55      2208.0000000        2210.5502930       -2.5502929688    
 1541-71-76      2217.0000000        2218.8745117       -1.8745117188    
 1541-71-365     2216.0000000        2220.6225586       -4.6225585938    
 1510-42-357     2288.0000000        2279.6286621        8.3713378906    
 1510-48-337     2274.0000000        2259.9316406        14.068359375    
 1510-56-18      2247.0000000        2239.5952148        7.4047851562    
 1510-60-333     2215.0000000        2218.6047363       -3.6047363281    
 1510-65-299     2215.0000000        2215.6330566      -0.63305664062    
 1510-71-11      2226.0000000        2224.4685059        1.5314941406    
 1510-71-365     2232.0000000        2225.8813477        6.1186523438    
 1511-31-351     2321.0000000        2312.1323242        8.8676757812    
 1511-37-27      2298.0000000        2287.4677734        10.532226562    
 1511-42-357     2285.0000000        2279.6286621        5.3713378906    
 1511-48-337     2270.0000000        2259.9316406        10.068359375    
 1511-56-18      2243.0000000        2239.5952148        3.4047851562    
 1511-60-333     2210.0000000        2218.6047363       -8.6047363281    
 1511-65-299     2210.0000000        2215.6330566       -5.6330566406    
 1511-71-12      2223.0000000        2224.4619141       -1.4619140625    
 1511-71-365     2231.0000000        2225.8813477        5.1186523438    
 1512-31-351     2313.0000000        2312.1323242       0.86767578125    
 1512-42-357     2281.0000000        2279.6286621        1.3713378906    
 1512-48-337     2266.0000000        2259.9316406        6.0683593750    
 1512-56-18      2244.0000000        2239.5952148        4.4047851562    
 1513-31-351     2313.0000000        2312.1323242       0.86767578125    
 1513-42-357     2279.0000000        2279.6286621      -0.62866210938    
 1513-48-337     2262.0000000        2259.9316406        2.0683593750    
 1513-56-18      2241.0000000        2239.5952148        1.4047851562    
 1513-60-333     2223.0000000        2218.6047363        4.3952636719    
 1513-65-299     2216.0000000        2215.6330566       0.36694335938    
 1513-71-11      2225.0000000        2224.4685059       0.53149414062    
 1513-71-365     2229.0000000        2225.8813477        3.1186523438    
 1505-66-26      2212.0000000        2225.4345703       -13.434570312    
 1505-71-53      2224.0000000        2235.7641602       -11.764160156    
 1505-71-365     2227.0000000        2237.3176270       -10.317626953    
 1546-8-65       2365.0000000        2362.4160156        2.5839843750    
 1546-10-31      2359.0000000        2359.5090332      -0.50903320312    
 1546-17-82      2340.0000000        2343.5458984       -3.5458984375    
 1546-22-81      2325.0000000        2326.9318848       -1.9318847656    
 1551-42-363     2269.0000000        2268.4226074       0.57739257812    
 1551-48-357     2247.0000000        2249.5844727       -2.5844726562    
 1551-56-13      2223.0000000        2228.4289551       -5.4289550781    
 1551-61-31      2211.0000000        2210.8999023       0.10009765625    
 1551-66-19      2205.0000000        2205.4375000      -0.43750000000    
 1551-71-32      2214.0000000        2213.8376465       0.16235351562    
 1551-71-365     2217.0000000        2215.6252441        1.3747558594    
 1525-10-154     2356.0000000        2355.7802734       0.21972656250    
 1525-22-83      2327.0000000        2326.1459961       0.85400390625    
 1525-32-60      2295.0000000        2302.4526367       -7.4526367188    
 1525-42-363     2270.0000000        2271.6616211       -1.6616210938    
 1525-56-25      2233.0000000        2234.1345215       -1.1345214844    
 1525-60-351     2221.0000000        2217.0114746        3.9885253906    
 1525-66-1       2214.0000000        2211.1044922        2.8955078125    
 1525-71-32      2220.0000000        2216.4528809        3.5471191406    
 1525-71-365     2222.0000000        2217.8056641        4.1943359375    
 1813-17-82      2346.0000000        2345.4599609       0.54003906250    
 1813-22-82      2331.0000000        2328.9765625        2.0234375000    
 1813-26-294     2315.0000000        2316.6625977       -1.6625976562    
 1813-42-363     2274.0000000        2272.5317383        1.4682617188    
 1813-48-357     2254.0000000        2250.9326172        3.0673828125    
 1813-56-25      2232.0000000        2230.4765625        1.5234375000    
 1813-60-351     2216.0000000        2211.9201660        4.0798339844    
 1813-66-19      2211.0000000        2209.2355957        1.7644042969    
 1813-71-32      2219.0000000        2218.1794434       0.82055664062    
 1813-71-365     2221.0000000        2219.8461914        1.1538085938    
 1538-10-154     2366.0000000        2357.2517090        8.7482910156    
 1538-17-86      2350.0000000        2342.2617188        7.7382812500    
 1538-22-82      2333.0000000        2326.2333984        6.7666015625    
 1538-42-363     2276.0000000        2270.0751953        5.9248046875    
 1567-12-59      2335.0000000        2338.1118164       -3.1118164062    
 1567-17-85      2326.0000000        2328.0322266       -2.0322265625    
 1567-22-53      2311.0000000        2313.2727051       -2.2727050781    
 1567-27-15      2301.0000000        2300.5581055       0.44189453125    
 1567-32-65      2290.0000000        2291.3049316       -1.3049316406    
 1578-42-362     2258.0000000        2259.7485352       -1.7485351562    
 1579-34-182     2273.0000000        2280.5205078       -7.5205078125    
 1466-12-96      2355.0000000        2349.7922363        5.2077636719    
 1466-17-89      2342.0000000        2343.8342285       -1.8342285156    
 1466-32-60      2285.0000000        2309.9575195       -24.957519531    
 1466-37-89      2283.0000000        2291.3774414       -8.3774414062    
 1466-42-363     2278.0000000        2285.0371094       -7.0371093750    
 1466-48-357     2273.0000000        2279.0788574       -6.0788574219    
 1466-56-25      2260.0000000        2261.7895508       -1.7895507812    
 1466-71-365     2262.0000000        2224.8474121        37.152587891    
 1467-17-89      2339.0000000        2344.3227539       -5.3227539062    
 1467-22-60      2341.0000000        2331.4885254        9.5114746094    
 1467-48-357     2284.0000000        2279.2749023        4.7250976562    
 1467-56-25      2271.0000000        2262.0227051        8.9772949219    
 1467-60-351     2249.0000000        2243.3071289        5.6928710938    
 1467-65-355     2244.0000000        2229.8994141        14.100585938    
 1467-71-52      2248.0000000        2225.3708496        22.629150391    
 1467-71-365     2251.0000000        2225.2187500        25.781250000    
 1470-17-82      2358.0000000        2354.1491699        3.8508300781    
 1470-22-82      2341.0000000        2337.9384766        3.0615234375    
 1470-42-362     2281.0000000        2285.2460938       -4.2460937500    
 1470-48-357     2261.0000000        2267.9138184       -6.9138183594    
 1470-56-18      2245.0000000        2248.3940430       -3.3940429688    
 1470-60-308     2248.0000000        2230.8283691        17.171630859    
 1470-71-365     2236.0000000        2231.0231934        4.9768066406    
 1500-27-60      2313.0000000        2315.8110352       -2.8110351562    
 1500-42-362     2271.0000000        2277.2377930       -6.2377929688    
 1500-48-357     2256.0000000        2262.0549316       -6.0549316406    
 1500-56-25      2238.0000000        2243.6074219       -5.6074218750    
 1500-60-351     2226.0000000        2227.4938965       -1.4938964844    
 1459-11-68      2372.0000000        2360.9882812        11.011718750    
 1459-17-82      2352.0000000        2350.4052734        1.5947265625    
 1459-22-60      2338.0000000        2335.9301758        2.0698242188    
 1459-26-293     2313.0000000        2321.2775879       -8.2775878906    
 1459-42-363     2281.0000000        2285.5727539       -4.5727539062    
 1459-48-357     2271.0000000        2271.3332520      -0.33325195312    
 1459-56-25      2257.0000000        2256.0817871       0.91821289062    
 1459-60-351     2245.0000000        2238.1535645        6.8464355469    
 1459-66-12      2239.0000000        2229.9760742        9.0239257812    
 1459-71-365     2240.0000000        2229.2436523        10.756347656    
 1455-12-96      2383.0000000        2368.7729492        14.227050781    
 1455-17-82      2366.0000000        2356.8232422        9.1767578125    
 1443-12-96      2386.0000000        2369.2448730        16.755126953    
 1443-17-82      2368.0000000        2358.3906250        9.6093750000    
 1443-32-60      2324.0000000        2318.3242188        5.6757812500    
 1443-38-60      2317.0000000        2296.5756836        20.424316406    
 1443-42-364     2288.0000000        2290.9794922       -2.9794921875    
 1443-48-341     2308.0000000        2275.1501465        32.849853516    
 1486-56-56      2255.0000000        2255.4333496      -0.43334960938    
 1486-71-365     2233.0000000        2237.6801758       -4.6801757812    
 1485-71-365     2233.0000000        2237.6801758       -4.6801757812    
 1475-11-305     2358.0000000        2370.8864746       -12.886474609    
 1465-17-82      2367.0000000        2360.6899414        6.3100585938    
 1465-22-82      2351.0000000        2344.4873047        6.5126953125    
 1465-42-356     2285.0000000        2289.3159180       -4.3159179688    
 1465-48-355     2273.0000000        2275.7304688       -2.7304687500    
 1465-56-25      2256.0000000        2257.1835938       -1.1835937500    
 1465-60-351     2237.0000000        2240.0710449       -3.0710449219    
 1465-66-1       2234.0000000        2232.9038086        1.0961914062    
 1465-71-365     2240.0000000        2235.5935059        4.4064941406    
 1440-17-82      2373.0000000        2368.9982910        4.0017089844    
 1440-22-80      2355.0000000        2350.8544922        4.1455078125    
 1440-32-60      2326.0000000        2325.9653320       3.46679687500E-02
 1440-37-90      2301.0000000        2304.6359863       -3.6359863281    
 1440-48-355     2276.0000000        2278.4873047       -2.4873046875    
 1441-11-283     2409.0000000        2394.2668457        14.733154297    
 1474-17-87      2384.0000000        2383.6284180       0.37158203125    
 1474-22-80      2367.0000000        2362.6862793        4.3137207031    
 1474-61-31      2235.0000000        2249.1042480       -14.104248047    
 1474-71-68      2238.0000000        2258.6357422       -20.635742188    
 1474-71-365     2238.0000000        2259.7070312       -21.707031250    
 1478-48-355     2282.0000000        2285.0158691       -3.0158691406    
 1478-56-26      2259.0000000        2267.5781250       -8.5781250000    
 1478-60-350     2238.0000000        2245.0668945       -7.0668945312    
 1478-65-355     2224.0000000        2249.9934082       -25.993408203    
 1478-71-68      2237.0000000        2257.6601562       -20.660156250    
 1478-71-365     2238.0000000        2258.5864258       -20.586425781    
 1453-17-85      2382.0000000        2379.1713867        2.8286132812    
 1453-22-80      2362.0000000        2359.7092285        2.2907714844    
 1453-42-356     2296.0000000        2306.0292969       -10.029296875    
 1453-48-355     2280.0000000        2286.2307129       -6.2307128906    
 1453-66-49      2244.0000000        2247.3056641       -3.3056640625    
 1453-71-68      2245.0000000        2252.1894531       -7.1894531250    
 1453-71-365     2244.0000000        2252.9870605       -8.9870605469    
 1454-42-356     2295.0000000        2307.4985352       -12.498535156    
 1454-48-355     2279.0000000        2284.7839355       -5.7839355469    
 1454-55-362     2264.0000000        2266.8818359       -2.8818359375    
 1454-61-31      2239.0000000        2245.9370117       -6.9370117188    
 1454-66-49      2238.0000000        2247.9575195       -9.9575195312    
 1454-71-68      2244.0000000        2253.5607910       -9.5607910156    
 1454-71-365     2244.0000000        2254.3737793       -10.373779297    
 1447-66-49      2234.0000000        2249.6091309       -15.609130859    
 1447-71-68      2240.0000000        2254.3808594       -14.380859375    
 1447-71-365     2241.0000000        2255.1530762       -14.153076172    
 1444-42-356     2300.0000000        2315.3059082       -15.305908203    
 1444-48-355     2280.0000000        2292.0522461       -12.052246094    
 1444-55-362     2266.0000000        2274.9333496       -8.9333496094    
 1444-61-6       2244.0000000        2256.5593262       -12.559326172    
 1444-66-49      2245.0000000        2257.4248047       -12.424804688    
 1444-71-68      2248.0000000        2261.7922363       -13.792236328    
 1444-71-365     2249.0000000        2262.5517578       -13.551757812    
 1499-11-360     2412.0000000        2414.9260254       -2.9260253906    
 1499-17-85      2392.0000000        2395.7031250       -3.7031250000    
 1499-22-81      2373.0000000        2375.2329102       -2.2329101562    
 1499-48-355     2278.0000000        2294.1420898       -16.142089844    
 1499-56-20      2259.0000000        2278.2849121       -19.284912109    
 1499-60-350     2237.0000000        2255.8647461       -18.864746094    
 1499-66-14      2227.0000000        2263.8530273       -36.853027344    
 1499-71-64      2230.0000000        2271.2817383       -41.281738281    
 1499-71-365     2231.0000000        2271.6401367       -40.640136719    
 1490-66-45      2231.0000000        2266.8964844       -35.896484375    
 1490-71-64      2237.0000000        2273.7832031       -36.783203125    
 1490-71-365     2236.0000000        2274.1459961       -38.145996094    
 1436-71-64      2247.0000000        2270.7653809       -23.765380859    
 1436-71-365     2247.0000000        2271.3942871       -24.394287109    
 1488-17-87      2396.0000000        2414.2204590       -18.220458984    
 1488-22-81      2374.0000000        2393.8813477       -19.881347656    
 1488-48-350     2281.0000000        2313.6887207       -32.688720703    
 1488-56-20      2281.0000000        2298.7192383       -17.719238281    
 1502-17-85      2394.0000000        2408.5788574       -14.578857422    
 1502-22-81      2374.0000000        2387.9992676       -13.999267578    
 1502-48-365     2275.0000000        2305.0019531       -30.001953125    
 1502-56-20      2259.0000000        2290.7944336       -31.794433594    
 1502-60-350     2239.0000000        2271.8078613       -32.807861328    
 1502-66-46      2231.0000000        2278.6232910       -47.623291016    
 1502-71-54      2236.0000000        2285.0190430       -49.019042969    
 1502-71-365     2237.0000000        2285.3999023       -48.399902344    
 1477-8-69       2422.0000000        2429.8300781       -7.8300781250    
 1477-12-96      2416.0000000        2424.2583008       -8.2583007812    
 1477-17-86      2396.0000000        2404.7548828       -8.7548828125    
 1477-22-81      2375.0000000        2385.9228516       -10.922851562    
 1477-32-60      2339.0000000        2361.2971191       -22.297119141    
 1458-17-85      2403.0000000        2412.5168457       -9.5168457031    
 1458-22-81      2374.0000000        2393.3442383       -19.344238281    
 1458-42-355     2307.0000000        2341.3120117       -34.312011719    
 1458-48-350     2294.0000000        2319.6564941       -25.656494141    
 1458-56-20      2293.0000000        2303.2565918       -10.256591797    
 1458-60-350     2267.0000000        2286.7023926       -19.702392578    
 1458-71-64      2254.0000000        2291.9816895       -37.981689453    
 1458-71-365     2254.0000000        2292.3356934       -38.335693359    
 1460-66-1       2248.0000000        2286.7456055       -38.745605469    
 1460-71-64      2252.0000000        2291.6972656       -39.697265625    
 1460-71-365     2252.0000000        2292.0434570       -40.043457031    
 1429-17-85      2413.0000000        2417.7939453       -4.7939453125    
 1429-22-81      2380.0000000        2398.8544922       -18.854492188    
 1429-42-355     2327.0000000        2352.0988770       -25.098876953    
 1429-48-350     2319.0000000        2334.4814453       -15.481445312    
 1429-56-20      2319.0000000        2317.5473633        1.4526367188    
 1429-60-350     2295.0000000        2302.4270020       -7.4270019531    
 1429-66-53      2283.0000000        2298.6525879       -15.652587891    
 1429-71-13      2281.0000000        2300.7314453       -19.731445312    
 1429-71-365     2281.0000000        2301.1894531       -20.189453125    
 1431-17-85      2421.0000000        2431.1379395       -10.137939453    
 1431-22-82      2385.0000000        2411.9514160       -26.951416016    
 1431-27-63      2379.0000000        2395.0480957       -16.048095703    
 1431-32-60      2360.0000000        2388.3786621       -28.378662109    
 1431-42-355     2337.0000000        2363.6169434       -26.616943359    
 1431-48-350     2329.0000000        2346.6762695       -17.676269531    
 1431-56-20      2334.0000000        2329.3334961        4.6665039062    
 1431-60-350     2307.0000000        2314.9724121       -7.9724121094    
 1431-71-13      2294.0000000        2311.9401855       -17.940185547    
 1431-71-365     2293.0000000        2312.4265137       -19.426513672    
 1392-16-363     2419.0000000        2427.8249512       -8.8249511719    
 1397-22-80      2377.0000000        2375.7744141        1.2255859375    
 1397-42-355     2303.0000000        2319.6164551       -16.616455078    
 1397-48-355     2297.0000000        2304.7189941       -7.7189941406    
 1397-55-361     2287.0000000        2291.5288086       -4.5288085938    
 1397-61-14      2271.0000000        2271.1076660      -0.10766601562    
 1397-66-12      2261.0000000        2265.9782715       -4.9782714844    
 1397-71-68      2263.0000000        2265.6972656       -2.6972656250    
 1397-71-365     2262.0000000        2265.8056641       -3.8056640625    
 1426-12-95      2393.0000000        2379.6599121        13.340087891    
 1426-17-82      2374.0000000        2367.8867188        6.1132812500    
 1426-22-80      2353.0000000        2349.8945312        3.1054687500    
 1426-26-288     2333.0000000        2334.8408203       -1.8408203125    
 1426-42-356     2289.0000000        2299.1313477       -10.131347656    
 1426-48-355     2280.0000000        2283.7639160       -3.7639160156    
 1426-55-350     2272.0000000        2270.8481445        1.1518554688    
 1426-61-13      2254.0000000        2244.9548340        9.0451660156    
 1426-66-12      2248.0000000        2244.9016113        3.0983886719    
 1426-71-54      2251.0000000        2245.1071777        5.8928222656    
 1426-71-365     2251.0000000        2245.4592285        5.5407714844    
 1411-56-25      2327.0000000        2276.7485352        50.251464844    
 1411-61-42      2256.0000000        2250.2717285        5.7282714844    
 1411-66-12      2261.0000000        2249.5266113        11.473388672    
 1411-71-54      2264.0000000        2246.3820801        17.617919922    
 1411-71-365     2265.0000000        2246.3632812        18.636718750    
 1409-61-42      2252.0000000        2250.3781738        1.6218261719    
 1409-66-12      2255.0000000        2250.9333496        4.0666503906    
 1409-71-54      2259.0000000        2247.7287598        11.271240234    
 1409-71-365     2259.0000000        2247.6613770        11.338623047    
 1390-71-68      2273.0000000        2249.0041504        23.995849609    
 1390-71-362     2274.0000000        2248.4975586        25.502441406    
 1416-71-1       2345.0000000        2236.0908203        108.90917969    
 1372-66-5       2260.0000000        2262.9736328       -2.9736328125    
 1372-71-68      2266.0000000        2257.0646973        8.9353027344    
 1372-71-362     2267.0000000        2256.4882812        10.511718750    
 1312-12-265     2428.0000000        2410.8872070        17.112792969    
 1332-71-13      2268.0000000        2278.0415039       -10.041503906    
 1332-71-362     2269.0000000        2277.7551270       -8.7551269531    
 1359-32-69      2369.0000000        2392.6169434       -23.616943359    
 1359-37-95      2357.0000000        2379.6127930       -22.612792969    
 1359-42-356     2342.0000000        2368.4384766       -26.438476562    
 1359-48-334     2340.0000000        2354.7431641       -14.743164062    
 1359-56-19      2336.0000000        2338.6215820       -2.6215820312    
 1359-60-321     2328.0000000        2325.3764648        2.6235351562    
 1359-65-298     2316.0000000        2315.4045410       0.59545898438    
 1359-71-14      2311.0000000        2313.6010742       -2.6010742188    
 1359-71-365     2310.0000000        2313.7497559       -3.7497558594    
 1333-7-28       2444.0000000        2455.1657715       -11.165771484    
 1333-12-95      2441.0000000        2450.0964355       -9.0964355469    
 1333-17-87      2429.0000000        2438.9462891       -9.9462890625    
 1333-32-69      2376.0000000        2398.7509766       -22.750976562    
 1333-56-19      2338.0000000        2345.4438477       -7.4438476562    
 1333-61-60      2326.0000000        2331.6862793       -5.6862792969    
 1333-66-25      2318.0000000        2321.6843262       -3.6843261719    
 1355-32-69      2393.0000000        2414.2133789       -21.213378906    
 1355-37-95      2380.0000000        2399.4682617       -19.468261719    
 1355-42-356     2364.0000000        2388.5534668       -24.553466797    
 1355-48-344     2361.0000000        2375.2375488       -14.237548828    
 1355-56-19      2358.0000000        2359.8398438       -1.8398437500    
 1355-61-60      2344.0000000        2346.6437988       -2.6437988281    
 1355-66-25      2340.0000000        2338.0417480        1.9582519531    
 1355-71-40      2336.0000000        2335.0695801       0.93041992188    
 1295-32-69      2390.0000000        2413.5957031       -23.595703125    
 1295-37-95      2371.0000000        2399.0102539       -28.010253906    
 1295-42-355     2349.0000000        2387.7380371       -38.738037109    
 1295-56-19      2349.0000000        2363.8129883       -14.812988281    
 1295-61-60      2339.0000000        2351.7565918       -12.756591797    
 1289-48-344     2368.0000000        2384.7102051       -16.710205078    
 1289-56-20      2364.0000000        2370.7241211       -6.7241210938    
 1289-61-60      2350.0000000        2358.0727539       -8.0727539062    
 1289-66-25      2344.0000000        2348.9033203       -4.9033203125    
 1289-71-40      2343.0000000        2344.4270020       -1.4270019531    
 1856-33-79      2578.0000000        2575.0458984        2.9541015625    
 1866-42-356     2576.0000000        2582.3073730       -6.3073730469    
 1866-48-348     2579.0000000        2599.2897949       -20.289794922    
 1866-55-347     2585.0000000        2596.5874023       -11.587402344    
 1866-60-356     2566.0000000        2584.9780273       -18.978027344    
 1866-66-5       2562.0000000        2573.9160156       -11.916015625    
 1866-71-39      2575.0000000        2572.2753906        2.7246093750    
 1866-71-41      2576.0000000        2572.2995605        3.7004394531    
 1866-71-365     2573.0000000        2574.2666016       -1.2666015625    
 1859-55-347     2584.0000000        2596.8955078       -12.895507812    
 1859-66-33      2569.0000000        2575.1594238       -6.1594238281    
 1860-42-356     2576.0000000        2582.5952148       -6.5952148438    
 1860-48-348     2583.0000000        2599.5688477       -16.568847656    
 1860-56-5       2587.0000000        2596.3193359       -9.3193359375    
 1860-66-5       2561.0000000        2573.8679199       -12.867919922    
 1860-71-365     2572.0000000        2574.2619629       -2.2619628906    
 1867-66-5       2564.0000000        2573.0104980       -9.0104980469    
 1867-71-365     2574.0000000        2573.4155273       0.58447265625    
 1855-66-5       2562.0000000        2573.0791016       -11.079101562    
 1855-71-365     2571.0000000        2573.4960938       -2.4960937500    
 1876-42-362     2512.0000000        2559.6311035       -47.631103516    
 1876-48-338     2505.0000000        2564.5424805       -59.542480469    
 1876-56-16      2507.0000000        2566.0505371       -59.050537109    
 1750-56-16      2540.0000000        2559.8669434       -19.866943359    
 1750-61-53      2526.0000000        2547.4562988       -21.456298828    
 1750-66-27      2459.0000000        2525.5537109       -66.553710938    
 1730-56-16      2519.0000000        2558.8498535       -39.849853516    
 1730-61-53      2488.0000000        2545.5258789       -57.525878906    
 1730-66-31      2447.0000000        2523.2558594       -76.255859375    
 1835-22-32      2566.0000000        2579.9016113       -13.901611328    
 1835-27-12      2578.0000000        2582.9096680       -4.9096679688    
 1831-1-365      2572.0000000        2581.5195312       -9.5195312500    
 1801-22-32      2571.0000000        2574.5170898       -3.5170898438    
 1801-27-12      2578.0000000        2577.1938477       0.80615234375    
 1739-56-16      2543.0000000        2561.2880859       -18.288085938    
 1739-61-53      2512.0000000        2548.6757812       -36.675781250    
 1739-66-27      2470.0000000        2526.5146484       -56.514648438    
 1725-66-12      2427.0000000        2449.3203125       -22.320312500    
 1725-71-365     2444.0000000        2456.7282715       -12.728271484    
 1761-27-17      2560.0000000        2554.7121582        5.2878417969    
 1761-32-60      2546.0000000        2549.4597168       -3.4597167969    
 1761-42-355     2538.0000000        2535.0468750        2.9531250000    
 1761-48-350     2547.0000000        2536.0690918        10.930908203    
 1761-56-6       2565.0000000        2536.9931641        28.006835938    
 1761-66-1       2523.0000000        2500.6865234        22.313476562    
 1761-71-35      2531.0000000        2505.2636719        25.736328125    
 1761-71-365     2527.0000000        2504.4814453        22.518554688    
 1774-48-365     2512.0000000        2517.5529785       -5.5529785156    
 1774-56-5       2517.0000000        2524.4433594       -7.4433593750    
 1774-66-1       2441.0000000        2489.2692871       -48.269287109    
 1774-71-35      2455.0000000        2497.9084473       -42.908447266    
 1774-71-365     2470.0000000        2496.8405762       -26.840576172    
 1740-1-365      2556.0000000        2553.7023926        2.2976074219    
 1740-16-356     2564.0000000        2553.2019043        10.798095703    
 1853-42-357     2500.0000000        2504.9123535       -4.9123535156    
 1850-48-338     2494.0000000        2489.5024414        4.4975585938    
 1850-56-16      2506.0000000        2484.9951172        21.004882812    
 1850-66-31      2432.0000000        2444.5815430       -12.581542969    
 1850-71-40      2432.0000000        2449.4919434       -17.491943359    
 1895-16-362     2491.0000000        2499.6618652       -8.6618652344    
 1895-22-32      2496.0000000        2499.5449219       -3.5449218750    
 1895-27-12      2495.0000000        2498.2348633       -3.2348632812    
 1737-43-32      2452.0000000        2453.4155273       -1.4155273438    
 1737-48-355     2449.0000000        2447.8242188        1.1757812500    
 1737-56-5       2450.0000000        2441.6435547        8.3564453125    
 1737-61-26      2416.0000000        2418.1352539       -2.1352539062    
 1737-66-28      2390.0000000        2401.1254883       -11.125488281    
 1737-71-35      2403.0000000        2409.7353516       -6.7353515625    
 1737-71-365     2410.0000000        2410.0090332      -9.03320312500E-03
 1802-1-276      2517.0000000        2519.8107910       -2.8107910156    
 1802-4-104      2524.0000000        2520.2036133        3.7963867188    
 1746-42-355     2492.0000000        2474.1757812        17.824218750    
 1746-48-355     2485.0000000        2469.2060547        15.793945312    
 1746-56-11      2478.0000000        2462.3066406        15.693359375    
 1746-61-33      2448.0000000        2439.1149902        8.8850097656    
 1746-66-28      2423.0000000        2420.2622070        2.7377929688    
 1746-71-33      2429.0000000        2427.7658691        1.2341308594    
 1746-71-344     2436.0000000        2428.8623047        7.1376953125    
 1940-42-355     2460.0000000        2459.6123047       0.38769531250    
 1940-48-355     2452.0000000        2458.8503418       -6.8503417969    
 1940-56-5       2458.0000000        2449.0502930        8.9497070312    
 1940-66-1       2399.0000000        2413.1345215       -14.134521484    
 1940-71-35      2414.0000000        2415.8093262       -1.8093261719    
 1940-71-365     2425.0000000        2416.6235352        8.3764648438    
 1925-48-355     2454.0000000        2456.2189941       -2.2189941406    
 1925-56-5       2452.0000000        2446.1040039        5.8959960938    
 1925-61-26      2430.0000000        2430.7192383      -0.71923828125    
 1925-66-32      2401.0000000        2412.5310059       -11.531005859    
 1925-71-35      2415.0000000        2414.2644043       0.73559570312    
 1925-71-365     2425.0000000        2414.9943848        10.005615234    
 1733-2-93       2454.0000000        2480.6582031       -26.658203125    
 1732-12-114     2492.0000000        2482.4140625        9.5859375000    
 1732-16-362     2487.0000000        2479.4052734        7.5947265625    
 1732-27-90      2488.0000000        2469.9763184        18.023681641    
 1732-32-60      2477.0000000        2461.2653809        15.734619141    
 1732-42-357     2451.0000000        2425.5117188        25.488281250    
 1732-48-341     2442.0000000        2409.2880859        32.711914062    
 1732-56-16      2442.0000000        2395.5341797        46.465820312    
 1809-48-355     2456.0000000        2442.7060547        13.293945312    
 1809-55-346     2445.0000000        2432.2458496        12.754150391    
 1809-60-364     2416.0000000        2414.9868164        1.0131835938    
 1809-66-28      2392.0000000        2398.0615234       -6.0615234375    
 1809-71-39      2404.0000000        2403.8369141       0.16308593750    
 1809-71-365     2410.0000000        2405.0410156        4.9589843750    
 1731-56-5       2444.0000000        2421.0344238        22.965576172    
 1731-60-351     2411.0000000        2402.5126953        8.4873046875    
 1731-65-364     2388.0000000        2386.8322754        1.1677246094    
 1731-71-35      2402.0000000        2394.8615723        7.1384277344    
 1731-71-365     2409.0000000        2396.2719727        12.728027344    
 1915-56-13      2454.0000000        2421.0202637        32.979736328    
 1915-60-351     2434.0000000        2409.3884277        24.611572266    
 1915-66-32      2406.0000000        2393.3691406        12.630859375    
 1915-71-55      2421.0000000        2395.3251953        25.674804688    
 1915-71-365     2430.0000000        2395.0695801        34.930419922    
 1869-1-365      2488.0000000        2471.0327148        16.967285156    
 1884-1-52       2488.0000000        2481.8500977        6.1499023438    
 1910-66-32      2249.0000000        2357.0483398       -108.04833984    
 1910-71-365     2261.0000000        2360.3613281       -99.361328125    
 1887-66-32      2240.0000000        2344.3950195       -104.39501953    
 1887-71-365     2251.0000000        2348.4333496       -97.433349609    
 1854-66-48      2237.0000000        2339.9409180       -102.94091797    
 1885-7-322      2430.0000000        2464.5737305       -34.573730469    
 1885-12-116     2429.0000000        2460.5258789       -31.525878906    
 1790-66-48      2237.0000000        2347.8972168       -110.89721680    
 1836-66-48      2246.0000000        2328.1127930       -82.112792969    
 1783-66-48      2233.0000000        2326.8798828       -93.879882812    
 1846-48-355     2447.0000000        2406.3479004        40.652099609    
 1846-55-327     2443.0000000        2388.8803711        54.119628906    
 1846-61-14      2423.0000000        2377.3505859        45.649414062    
 1846-66-48      2393.0000000        2368.5244141        24.475585938    
 1846-71-365     2419.0000000        2372.7243652        46.275634766    
 1845-48-355     2280.0000000        2400.3427734       -120.34277344    
 1845-55-360     2260.0000000        2381.5920410       -121.59204102    
 1845-61-11      2236.0000000        2373.2902832       -137.29028320    
 1845-66-32      2236.0000000        2365.1762695       -129.17626953    
 1845-71-365     2248.0000000        2367.7478027       -119.74780273    
 1916-56-5       2280.0000000        2369.7121582       -89.712158203    
 1916-66-32      2252.0000000        2350.4707031       -98.470703125    
 1916-71-365     2266.0000000        2353.8217773       -87.821777344    
 1911-56-5       2277.0000000        2367.5205078       -90.520507812    
 1911-66-32      2249.0000000        2348.4013672       -99.401367188    
 1911-71-365     2265.0000000        2352.2187500       -87.218750000    
 1897-12-114     2444.0000000        2450.1975098       -6.1975097656    
 1897-27-10      2398.0000000        2427.0993652       -29.099365234    
 1893-66-32      2242.0000000        2339.0334473       -97.033447266    
 1893-71-365     2255.0000000        2343.4523926       -88.452392578    
 1917-48-355     2276.0000000        2323.5681152       -47.568115234    
 1917-66-32      2225.0000000        2304.6489258       -79.648925781    
 1917-71-344     2242.0000000        2311.3278809       -69.327880859    
 1672-66-45      2225.0000000        2294.4304199       -69.430419922    
 1647-12-332     2378.0000000        2431.5922852       -53.592285156    
 1647-16-355     2370.0000000        2421.4201660       -51.420166016    
 1659-22-81      2389.0000000        2410.4934082       -21.493408203    
 1659-42-356     2300.0000000        2343.5654297       -43.565429688    
 1659-48-355     2266.0000000        2315.6962891       -49.696289062    
 1659-56-6       2251.0000000        2307.7597656       -56.759765625    
 1659-60-354     2231.0000000        2296.7895508       -65.789550781    
 1659-66-45      2228.0000000        2299.1657715       -71.165771484    
 1659-71-365     2239.0000000        2306.1821289       -67.182128906    
 1682-48-355     2254.0000000        2297.2482910       -43.248291016    
 1707-42-355     2288.0000000        2326.3820801       -38.382080078    
 1707-48-355     2254.0000000        2297.2482910       -43.248291016    
 1707-56-26      2242.0000000        2294.7919922       -52.791992188    
 1707-60-354     2220.0000000        2282.5900879       -62.590087891    
 1707-66-45      2218.0000000        2287.3300781       -69.330078125    
 1707-71-365     2230.0000000        2295.0544434       -65.054443359    
 1712-42-355     2287.0000000        2324.5493164       -37.549316406    
 1712-48-355     2252.0000000        2294.9731445       -42.973144531    
 1712-56-5       2241.0000000        2292.4343262       -51.434326172    
 1712-61-14      2219.0000000        2280.1894531       -61.189453125    
 1712-65-355     2216.0000000        2286.1535645       -70.153564453    
 1712-71-67      2227.0000000        2292.7761230       -65.776123047    
 1712-71-365     2230.0000000        2293.3039551       -63.303955078    
 1671-22-79      2383.0000000        2399.9235840       -16.923583984    
 1671-42-355     2291.0000000        2327.3403320       -36.340332031    
 1671-48-355     2257.0000000        2297.9323730       -40.932373047    
 1671-56-20      2242.0000000        2295.9677734       -53.967773438    
 1627-22-82      2391.0000000        2408.2280273       -17.228027344    
 1627-32-90      2353.0000000        2376.7785645       -23.778564453    
 1627-37-90      2326.0000000        2356.3225098       -30.322509766    
 1627-42-356     2305.0000000        2339.4411621       -34.441162109    
 1627-48-350     2268.0000000        2311.0197754       -43.019775391    
 1627-55-360     2254.0000000        2304.6086426       -50.608642578    
 1627-61-12      2234.0000000        2292.7036133       -58.703613281    
 1627-66-1       2232.0000000        2296.2639160       -64.263916016    
 1627-71-53      2240.0000000        2302.2204590       -62.220458984    
 1627-71-365     2243.0000000        2302.9907227       -59.990722656    
 1607-1-276      2426.0000000        2441.9970703       -15.997070312    
 1607-6-269      2424.0000000        2440.5673828       -16.567382812    
 1607-11-269     2418.0000000        2435.6767578       -17.676757812    
 1598-66-45      2231.0000000        2297.3540039       -66.354003906    
 1643-27-90      2380.0000000        2443.3801270       -63.380126953    
 1632-22-82      2403.0000000        2425.2236328       -22.223632812    
 1632-27-15      2382.0000000        2408.2192383       -26.219238281    
 1632-32-77      2361.0000000        2395.5126953       -34.512695312    
 1632-42-356     2316.0000000        2359.4489746       -43.448974609    
 1632-48-355     2282.0000000        2335.4304199       -53.430419922    
 1632-56-6       2266.0000000        2321.6013184       -55.601318359    
 1632-60-354     2245.0000000        2311.1926270       -66.192626953    
 1632-66-48      2242.0000000        2309.8352051       -67.835205078    
 1632-71-53      2250.0000000        2315.8017578       -65.801757812    
 1632-71-365     2253.0000000        2316.9243164       -63.924316406    
 1677-32-64      2477.0000000        2474.1184082        2.8815917969    
 1677-42-355     2451.0000000        2430.2185059        20.781494141    
 1677-48-351     2439.0000000        2404.8825684        34.117431641    
 1677-56-5       2443.0000000        2400.5402832        42.459716797    
 1677-61-26      2407.0000000        2372.8176270        34.182373047    
 1677-66-39      2386.0000000        2364.4323730        21.567626953    
 1677-71-35      2403.0000000        2378.4323730        24.567626953    
 1677-71-365     2408.0000000        2379.1484375        28.851562500    
 1646-27-90      2489.0000000        2470.7973633        18.202636719    
 1646-32-64      2482.0000000        2460.2189941        21.781005859    
 1646-42-355     2446.0000000        2415.7302246        30.269775391    
 1646-48-350     2434.0000000        2386.6962891        47.303710938    
 1646-56-5       2437.0000000        2381.0173340        55.982666016    
 1646-61-26      2402.0000000        2354.3942871        47.605712891    
 1646-66-39      2382.0000000        2346.9550781        35.044921875    
 1646-71-39      2400.0000000        2362.4204102        37.579589844    
 1646-71-365     2406.0000000        2363.4479980        42.552001953    
 1602-42-355     2336.0000000        2415.2316895       -79.231689453    
 1602-48-350     2264.0000000        2377.0939941       -113.09399414    
 1602-71-35      2252.0000000        2354.3474121       -102.34741211    
 1602-71-365     2254.0000000        2355.1164551       -101.11645508    
 1601-42-355     2335.0000000        2413.0996094       -78.099609375    
 1601-48-350     2261.0000000        2373.1494141       -112.14941406    
 1601-55-348     2268.0000000        2370.1157227       -102.11572266    
 1601-61-14      2211.0000000        2340.1054688       -129.10546875    
 1601-66-19      2208.0000000        2334.6345215       -126.63452148    
 1601-71-35      2254.0000000        2354.8242188       -100.82421875    
 1601-71-365     2255.0000000        2355.5073242       -100.50732422    
 1674-10-253     2532.0000000        2514.5886230        17.411376953    
 1676-42-355     2484.0000000        2461.9587402        22.041259766    
 1676-48-350     2487.0000000        2452.0205078        34.979492188    
 1676-55-349     2473.0000000        2443.7448730        29.255126953    
 1676-61-27      2442.0000000        2418.0266113        23.973388672    
 1676-66-19      2415.0000000        2403.4296875        11.570312500    
 1676-71-35      2419.0000000        2412.6054688        6.3945312500    
 1676-71-365     2429.0000000        2413.4934082        15.506591797    
 1645-32-77      2486.0000000        2484.2775879        1.7224121094    
 1645-42-355     2454.0000000        2441.0793457        12.920654297    
 1645-55-360     2447.0000000        2413.8840332        33.115966797    
 1645-60-356     2411.0000000        2385.7797852        25.220214844    
 1645-66-1       2384.0000000        2375.9948730        8.0051269531    
 1645-71-35      2400.0000000        2388.3046875        11.695312500    
 1645-71-365     2406.0000000        2388.8940430        17.105957031    
 1604-32-77      2471.0000000        2469.6264648        1.3735351562    
 1604-42-355     2439.0000000        2425.7365723        13.263427734    
 1604-48-350     2422.0000000        2389.5927734        32.407226562    
 1604-55-360     2425.0000000        2383.4936523        41.506347656    
 1604-60-362     2397.0000000        2353.8037109        43.196289062    
 1604-71-48      2392.0000000        2364.8813477        27.118652344    
 1604-71-365     2295.0000000        2365.8977051       -70.897705078    
 1640-55-360     2486.0000000        2499.8391113       -13.839111328    
 1640-60-356     2455.0000000        2476.9755859       -21.975585938    
 1640-66-19      2415.0000000        2452.4384766       -37.438476562    
 1640-71-22      2426.0000000        2462.9711914       -36.971191406    
 1640-71-365     2433.0000000        2461.7631836       -28.763183594    
 1720-66-5       2502.0000000        2539.4177246       -37.417724609    
 1720-71-22      2498.0000000        2540.3852539       -42.385253906    
 1720-71-365     2505.0000000        2540.0427246       -35.042724609    
 1706-33-318     2550.0000000        2557.4965820       -7.4965820312    
 1669-7-32       2537.0000000        2554.0676270       -17.067626953    
 1669-12-106     2531.0000000        2551.9885254       -20.988525391    
 1669-32-68      2527.0000000        2548.2526855       -21.252685547    
 1669-38-60      2519.0000000        2541.0139160       -22.013916016    
 1669-42-354     2509.0000000        2535.0109863       -26.010986328    
 1622-32-68      2527.0000000        2545.7319336       -18.731933594    
 1622-38-60      2519.0000000        2538.1301270       -19.130126953    
 1622-42-354     2506.0000000        2530.1662598       -24.166259766    
 1622-48-341     2497.0000000        2524.7800293       -27.780029297    
 1622-56-17      2489.0000000        2506.0239258       -17.023925781    
 1622-61-54      2461.0000000        2488.7416992       -27.741699219    
 1622-66-32      2420.0000000        2466.4760742       -46.476074219    
 1556-61-27      2456.0000000        2466.6860352       -10.686035156    
 1556-66-5       2432.0000000        2475.7177734       -43.717773438    
 1556-71-22      2436.0000000        2474.5869141       -38.586914062    
 1556-71-365     2439.0000000        2474.2263184       -35.226318359    
 1553-7-336      2538.0000000        2529.8769531        8.1230468750    
 1553-12-106     2533.0000000        2529.1269531        3.8730468750    
 1553-42-354     2503.0000000        2486.0842285        16.915771484    
 1553-48-341     2490.0000000        2460.5471191        29.452880859    
 1568-33-234     2528.0000000        2514.4069824        13.593017578    
 1568-48-341     2497.0000000        2460.4716797        36.528320312    
 1594-71-22      2425.0000000        2392.0368652        32.963134766    
 1594-71-365     2432.0000000        2395.2290039        36.770996094    
 1563-32-68      2526.0000000        2502.7155762        23.284423828    
 1563-37-48      2507.0000000        2485.9023438        21.097656250    
 1563-42-355     2500.0000000        2465.3762207        34.623779297    
 1563-48-348     2488.0000000        2435.4406738        52.559326172    
 1563-56-6       2480.0000000        2417.6528320        62.347167969    
 1553-15-99      2533.0000000        2527.8273926        5.1726074219    
 1522-42-355     2506.0000000        2492.9123535        13.087646484    
 1522-48-348     2488.0000000        2465.3239746        22.676025391    
 1527-55-354     2475.0000000        2447.1806641        27.819335938    
 1527-61-54      2451.0000000        2409.7036133        41.296386719    
 1527-66-32      2420.0000000        2388.7736816        31.226318359    
 1527-71-22      2426.0000000        2398.3496094        27.650390625    
 1527-71-365     2430.0000000        2398.9506836        31.049316406    
 1589-42-355     2468.0000000        2457.8923340        10.107666016    
 1589-48-350     2453.0000000        2427.6181641        25.381835938    
 1589-55-360     2454.0000000        2412.1413574        41.858642578    
 1589-61-14      2417.0000000        2390.2861328        26.713867188    
 1589-66-32      2394.0000000        2358.4670410        35.532958984    
 1589-71-22      2404.0000000        2376.8081055        27.191894531    
 1589-71-365     2408.0000000        2379.9606934        28.039306641    
 1586-32-68      2475.0000000        2474.0385742       0.96142578125    
 1586-48-356     2414.0000000        2391.9995117        22.000488281    
 1586-56-6       2423.0000000        2385.8535156        37.146484375    
 1586-60-356     2377.0000000        2358.9833984        18.016601562    
 1586-66-1       2371.0000000        2348.9384766        22.061523438    
 1586-71-35      2390.0000000        2363.7929688        26.207031250    
 1586-71-365     2393.0000000        2365.6076660        27.392333984    
 1532-42-355     2430.0000000        2426.3962402        3.6037597656    
 1532-48-348     2407.0000000        2387.9050293        19.094970703    
 1532-55-354     2420.0000000        2381.7536621        38.246337891    
 1532-61-28      2365.0000000        2356.3830566        8.6169433594    
 1532-66-46      2371.0000000        2342.5869141        28.413085938    
 1532-71-22      2384.0000000        2356.8352051        27.164794922    
 1532-71-365     2386.0000000        2359.2536621        26.746337891    
 1534-42-355     2432.0000000        2416.6909180        15.309082031    
 1534-48-348     2408.0000000        2381.2272949        26.772705078    
 1534-55-360     2413.0000000        2373.3654785        39.634521484    
 1534-61-5       2374.0000000        2348.2021484        25.797851562    
 1534-66-46      2373.0000000        2339.7492676        33.250732422    
 1534-71-35      2386.0000000        2352.6794434        33.320556641    
 1534-71-365     2388.0000000        2354.1806641        33.819335938    
 1524-42-355     2467.0000000        2449.3786621        17.621337891    
 1524-48-348     2449.0000000        2414.0541992        34.945800781    
 1524-56-6       2450.0000000        2399.2062988        50.793701172    
 1524-60-356     2418.0000000        2377.2045898        40.795410156    
 1524-66-1       2399.0000000        2345.2468262        53.753173828    
 1524-71-48      2406.0000000        2362.4956055        43.504394531    
 1524-71-365     2408.0000000        2365.5764160        42.423583984    
 1561-21-340     2488.0000000        2479.2207031        8.7792968750    
 1561-32-64      2474.0000000        2455.9931641        18.006835938    
 1561-42-355     2435.0000000        2412.9223633        22.077636719    
 1561-48-350     2413.0000000        2376.9458008        36.054199219    
 1561-55-360     2415.0000000        2366.8486328        48.151367188    
 1561-61-26      2375.0000000        2338.1193848        36.880615234    
 1561-66-46      2370.0000000        2330.8088379        39.191162109    
 1561-71-39      2389.0000000        2349.8889160        39.111083984    
 1561-71-365     2389.0000000        2350.7309570        38.269042969    
 1571-2-94       2432.0000000        2479.1220703       -47.122070312    
 1572-48-356     2300.0000000        2367.2380371       -67.238037109    
 1572-56-6       2274.0000000        2350.5090332       -76.509033203    
 1572-61-26      2244.0000000        2331.0895996       -87.089599609    
 1572-66-12      2245.0000000        2328.0861816       -83.086181641    
 1572-71-48      2258.0000000        2338.4804688       -80.480468750    
 1572-71-365     2261.0000000        2340.1062012       -79.106201172    
 1549-21-319     2437.0000000        2472.4160156       -35.416015625    
 1549-56-6       2281.0000000        2359.2919922       -78.291992188    
 1549-60-356     2224.0000000        2334.2485352       -110.24853516    
 1549-65-350     2214.0000000        2328.7683105       -114.76831055    
 1549-71-67      2262.0000000        2344.5461426       -82.546142578    
 1549-71-365     2261.0000000        2345.7370605       -84.737060547    
 1547-27-62      2388.0000000        2452.0412598       -64.041259766    
 1521-42-355     2372.0000000        2401.0993652       -29.099365234    
 1521-48-350     2352.0000000        2375.0437012       -23.043701172    
 1521-55-360     2338.0000000        2355.0065918       -17.006591797    
 1521-60-356     2321.0000000        2339.1386719       -18.138671875    
 1521-66-46      2311.0000000        2332.6369629       -21.636962891    
 1521-71-48      2316.0000000        2339.6062012       -23.606201172    
 1521-71-365     2317.0000000        2341.1452637       -24.145263672    
 1573-48-356     2281.0000000        2339.4401855       -58.440185547    
 1573-55-360     2268.0000000        2323.8779297       -55.877929688    
 1573-60-357     2244.0000000        2312.4338379       -68.433837891    
 1573-66-54      2243.0000000        2311.5219727       -68.521972656    
 1573-71-19      2248.0000000        2316.2163086       -68.216308594    
 1573-71-365     2252.0000000        2317.9704590       -65.970458984    
 1545-32-77      2351.0000000        2397.0722656       -46.072265625    
 1545-42-356     2319.0000000        2365.5234375       -46.523437500    
 1545-48-350     2289.0000000        2340.9162598       -51.916259766    
 1545-56-11      2270.0000000        2324.9086914       -54.908691406    
 1545-61-14      2247.0000000        2312.7712402       -65.771240234    
 1545-66-54      2248.0000000        2312.4125977       -64.412597656    
 1545-71-19      2254.0000000        2316.3923340       -62.392333984    
 1545-71-365     2257.0000000        2318.2426758       -61.242675781    
 1535-42-356     2320.0000000        2372.5739746       -52.573974609    
 1535-48-350     2292.0000000        2348.3413086       -56.341308594    
 1535-56-11      2272.0000000        2330.5285645       -58.528564453    
 1535-60-357     2251.0000000        2318.7392578       -67.739257812    
 1535-66-47      2250.0000000        2316.7102051       -66.710205078    
 1535-71-19      2256.0000000        2320.6269531       -64.626953125    
 1535-71-365     2259.0000000        2322.5678711       -63.567871094    
 1507-42-356     2326.0000000        2369.2253418       -43.225341797    
 1507-48-350     2302.0000000        2346.5888672       -44.588867188    
 1507-56-11      2271.0000000        2329.7094727       -58.709472656    
 1507-60-357     2251.0000000        2316.6176758       -65.617675781    
 1507-66-54      2262.0000000        2316.4960938       -54.496093750    
 1507-71-19      2264.0000000        2318.7761230       -54.776123047    
 1507-71-365     2267.0000000        2320.5830078       -53.583007812    
 1523-16-54      2421.0000000        2449.7551270       -28.755126953    
 1575-22-81      2393.0000000        2415.9270020       -22.927001953    
 1575-32-77      2347.0000000        2382.3923340       -35.392333984    
 1575-42-356     2309.0000000        2349.4323730       -40.432373047    
 1575-48-350     2282.0000000        2321.7763672       -39.776367188    
 1575-55-343     2259.0000000        2311.5322266       -52.532226562    
 1575-61-11      2235.0000000        2298.3532715       -63.353271484    
 1575-71-365     2245.0000000        2308.1337891       -63.133789062    
 1577-22-81      2388.0000000        2402.2814941       -14.281494141    
 1580-42-355     2298.0000000        2334.1323242       -36.132324219    
 1580-48-355     2264.0000000        2303.8735352       -39.873535156    
 1580-56-13      2247.0000000        2295.8471680       -48.847167969    
 1580-61-12      2227.0000000        2281.6015625       -54.601562500    
 1580-66-54      2229.0000000        2288.2814941       -59.281494141    
 1580-71-365     2239.0000000        2295.7512207       -56.751220703    
 1536-17-79      2407.0000000        2418.0998535       -11.099853516    
 1536-22-82      2382.0000000        2398.0100098       -16.010009766    
 1536-32-77      2338.0000000        2365.3923340       -27.392333984    
 1536-42-356     2301.0000000        2333.0312500       -32.031250000    
 1536-48-350     2273.0000000        2303.5568848       -30.556884766    
 1536-55-340     2255.0000000        2293.4416504       -38.441650391    
 1536-66-54      2231.0000000        2286.4277344       -55.427734375    
 1536-71-365     2239.0000000        2293.0354004       -54.035400391    
 1516-42-356     2308.0000000        2345.4431152       -37.443115234    
 1516-48-350     2286.0000000        2319.1999512       -33.199951172    
 1516-56-11      2261.0000000        2305.8347168       -44.834716797    
 1516-61-27      2234.0000000        2287.4243164       -53.424316406    
 1516-66-54      2242.0000000        2296.5839844       -54.583984375    
 1516-71-365     2249.0000000        2302.2770996       -53.277099609    
 1528-22-82      2382.0000000        2413.3020020       -31.302001953    
 1528-27-63      2368.0000000        2390.1938477       -22.193847656    
 1528-32-77      2344.0000000        2379.0439453       -35.043945312    
 1528-65-350     2242.0000000        2301.1616211       -59.161621094    
 1528-71-365     2251.0000000        2306.5449219       -55.544921875    
 1514-42-356     2309.0000000        2356.7343750       -47.734375000    
 1514-48-350     2287.0000000        2332.0393066       -45.039306641    
 1514-55-340     2267.0000000        2317.4943848       -50.494384766    
 1514-61-27      2237.0000000        2300.4750977       -63.475097656    
 1514-66-54      2245.0000000        2306.0007324       -61.000732422    
 1514-71-48      2248.0000000        2309.2307129       -61.230712891    
 1514-71-365     2252.0000000        2311.1665039       -59.166503906    
 1495-42-356     2327.0000000        2373.9846191       -46.984619141    
 1495-48-350     2304.0000000        2351.8183594       -47.818359375    
 1495-55-343     2283.0000000        2334.2924805       -51.292480469    
 1495-61-41      2259.0000000        2321.2429199       -62.242919922    
 1495-66-54      2265.0000000        2320.3728027       -55.372802734    
 1495-71-19      2266.0000000        2322.1909180       -56.190917969    
 1495-71-365     2269.0000000        2323.7055664       -54.705566406    
 1484-37-343     2324.0000000        2376.9062500       -52.906250000    
 1484-42-356     2322.0000000        2370.7338867       -48.733886719    
 1484-56-11      2270.0000000        2331.7995605       -61.799560547    
 1484-60-357     2250.0000000        2318.1562500       -68.156250000    
 1484-66-53      2257.0000000        2318.3850098       -61.385009766    
 1484-71-19      2258.0000000        2319.7778320       -61.777832031    
 1484-71-365     2265.0000000        2321.2167969       -56.216796875    
 1463-56-34      2297.0000000        2336.0451660       -39.045166016    
 1463-60-357     2276.0000000        2323.3469238       -47.346923828    
 1463-66-53      2277.0000000        2322.2126465       -45.212646484    
 1463-71-19      2276.0000000        2322.9370117       -46.937011719    
 1463-71-365     2278.0000000        2323.9846191       -45.984619141    
 1483-42-355     2409.0000000        2418.8542480       -9.8542480469    
 1483-48-348     2395.0000000        2393.3669434        1.6330566406    
 1483-56-6       2382.0000000        2374.2973633        7.7026367188    
 1483-60-357     2365.0000000        2358.5715332        6.4284667969    
 1483-66-46      2356.0000000        2347.7822266        8.2177734375    
 1483-71-35      2356.0000000        2351.8198242        4.1801757812    
 1483-71-365     2356.0000000        2352.5993652        3.4006347656    
 1437-16-300     2470.0000000        2482.4018555       -12.401855469    
 1437-22-32      2449.0000000        2475.5373535       -26.537353516    
 1437-27-12      2454.0000000        2465.4311523       -11.431152344    
 1438-42-362     2383.0000000        2410.2761230       -27.276123047    
 1438-56-20      2383.0000000        2368.9130859        14.086914062    
 1438-61-53      2377.0000000        2359.7614746        17.238525391    
 1438-66-32      2368.0000000        2348.8918457        19.108154297    
 1438-71-40      2365.0000000        2348.4719238        16.528076172    
 1445-27-76      2457.0000000        2477.9929199       -20.992919922    
 1445-32-55      2454.0000000        2467.3149414       -13.314941406    
 1445-42-356     2429.0000000        2424.7038574        4.2961425781    
 1445-48-348     2419.0000000        2401.4353027        17.564697266    
 1445-55-360     2412.0000000        2380.9326172        31.067382812    
 1445-60-357     2392.0000000        2367.3125000        24.687500000    
 1445-66-1       2384.0000000        2355.2016602        28.798339844    
 1445-71-35      2382.0000000        2356.0556641        25.944335938    
 1445-71-365     2381.0000000        2356.4243164        24.575683594    
 1489-32-63      2477.0000000        2479.7011719       -2.7011718750    
 1489-42-355     2437.0000000        2428.3715820        8.6284179688    
 1489-48-348     2415.0000000        2396.8452148        18.154785156    
 1489-55-353     2411.0000000        2384.3752441        26.624755859    
 1489-61-28      2385.0000000        2360.3186035        24.681396484    
 1489-66-39      2384.0000000        2350.4746094        33.525390625    
 1489-71-22      2387.0000000        2355.1611328        31.838867188    
 1489-71-365     2387.0000000        2357.1567383        29.843261719    
 1469-42-355     2488.0000000        2438.5288086        49.471191406    
 1469-48-348     2462.0000000        2407.1057129        54.894287109    
 1469-55-357     2471.0000000        2393.9609375        77.039062500    
 1469-61-54      2436.0000000        2367.2827148        68.717285156    
 1494-66-46      2436.0000000        2354.7307129        81.269287109    
 1469-71-71      2437.0000000        2359.6755371        77.324462891    
 1469-71-365     2438.0000000        2361.4340820        76.565917969    
 1464-12-102     2539.0000000        2514.5798340        24.420166016    
 1464-32-63      2521.0000000        2497.3955078        23.604492188    
 1464-42-354     2480.0000000        2446.8513184        33.148681641    
 1439-37-90      2487.0000000        2466.0212402        20.978759766    
 1439-42-355     2474.0000000        2444.7529297        29.247070312    
 1439-48-348     2451.0000000        2411.6074219        39.392578125    
 1439-56-6       2453.0000000        2401.1037598        51.896240234    
 1439-61-28      2422.0000000        2370.7756348        51.224365234    
 1439-66-46      2429.0000000        2365.6169434        63.383056641    
 1439-71-71      2424.0000000        2363.8925781        60.107421875    
 1439-71-365     2426.0000000        2365.4531250        60.546875000    
 1435-42-355     2478.0000000        2447.7856445        30.214355469    
 1435-48-348     2456.0000000        2411.7871094        44.212890625    
 1435-55-361     2461.0000000        2406.1816406        54.818359375    
 1435-61-11      2440.0000000        2369.5449219        70.455078125    
 1435-66-49      2431.0000000        2369.1442871        61.855712891    
 1435-71-71      2426.0000000        2365.2685547        60.731445312    
 1435-71-365     2429.0000000        2367.1076660        61.892333984    
 1449-37-30      2521.0000000        2553.1621094       -32.162109375    
 1414-7-138      2553.0000000        2586.6225586       -33.622558594    
 1414-32-64      2546.0000000        2581.2863770       -35.286376953    
 1414-38-60      2536.0000000        2576.1166992       -40.116699219    
 1414-42-354     2520.0000000        2569.1730957       -49.173095703    
 1379-71-356     2481.0000000        2514.5427246       -33.542724609    
 1425-2-94       2555.0000000        2550.7480469        4.2519531250    
 1425-16-359     2546.0000000        2548.8527832       -2.8527832031    
 1425-22-32      2543.0000000        2547.2016602       -4.2016601562    
 1425-27-12      2529.0000000        2545.8671875       -16.867187500    
 1382-42-355     2493.0000000        2488.4606934        4.5393066406    
 1382-48-348     2482.0000000        2471.2038574        10.796142578    
 1382-56-6       2480.0000000        2456.0449219        23.955078125    
 1382-61-54      2469.0000000        2443.9946289        25.005371094    
 1382-66-46      2455.0000000        2432.7075195        22.292480469    
 1382-71-22      2447.0000000        2427.5493164        19.450683594    
 1382-71-365     2447.0000000        2426.1420898        20.857910156    
 1413-32-64      2464.0000000        2459.6235352        4.3764648438    
 1413-37-48      2451.0000000        2441.1015625        9.8984375000    
 1413-56-6       2328.0000000        2387.2441406       -59.244140625    
 1413-61-26      2424.0000000        2377.8349609        46.165039062    
 1413-66-53      2410.0000000        2365.4255371        44.574462891    
 1413-71-48      2401.0000000        2362.2683105        38.731689453    
 1395-32-64      2455.0000000        2452.7175293        2.2824707031    
 1395-42-355     2427.0000000        2423.0861816        3.9138183594    
 1395-48-348     2425.0000000        2406.4038086        18.596191406    
 1395-56-6       2418.0000000        2387.8073730        30.192626953    
 1395-61-26      2413.0000000        2377.9868164        35.013183594    
 1395-66-1       2404.0000000        2367.5607910        36.439208984    
 1395-71-48      2398.0000000        2362.3935547        35.606445312    
 1395-71-365     2396.0000000        2361.9570312        34.042968750    
 1377-35-16      2432.0000000        2444.0300293       -12.030029297    
 1377-42-355     2423.0000000        2427.5874023       -4.5874023438    
 1377-48-348     2420.0000000        2414.1674805        5.8325195312    
 1377-56-6       2414.0000000        2395.3576660        18.642333984    
 1377-61-26      2408.0000000        2384.7658691        23.234130859    
 1377-66-53      2401.0000000        2374.7868652        26.213134766    
 1377-71-365     2394.0000000        2368.4548340        25.545166016    
 1394-42-355     2458.0000000        2442.4567871        15.543212891    
 1394-48-348     2453.0000000        2426.8666992        26.133300781    
 1394-56-6       2446.0000000        2406.4921875        39.507812500    
 1394-61-26      2438.0000000        2396.9382324        41.061767578    
 1394-66-53      2427.0000000        2383.4299316        43.570068359    
 1394-71-365     2418.0000000        2378.6655273        39.334472656    
 1375-32-64      2490.0000000        2486.6787109        3.3212890625    
 1375-42-355     2474.0000000        2456.4230957        17.576904297    
 1375-48-348     2471.0000000        2444.2995605        26.700439453    
 1375-56-6       2464.0000000        2425.0354004        38.964599609    
 1375-61-26      2457.0000000        2415.6635742        41.336425781    
 1375-66-53      2446.0000000        2403.3820801        42.617919922    
 1375-71-365     2437.0000000        2396.3515625        40.648437500    
 1396-17-90      2452.0000000        2457.8901367       -5.8901367188    
 1396-22-81      2425.0000000        2443.9331055       -18.933105469    
 1396-32-63      2415.0000000        2423.6474609       -8.6474609375    
 1396-42-355     2389.0000000        2398.1975098       -9.1975097656    
 1396-48-350     2386.0000000        2383.4011230        2.5988769531    
 1396-56-11      2379.0000000        2365.3320312        13.667968750    
 1396-61-26      2365.0000000        2353.2507324        11.749267578    
 1396-66-53      2360.0000000        2345.9206543        14.079345703    
 1396-71-365     2352.0000000        2342.5200195        9.4799804688    
 1415-22-82      2419.0000000        2428.4335938       -9.4335937500    
 1415-32-63      2387.0000000        2405.1721191       -18.172119141    
 1415-37-90      2374.0000000        2393.7751465       -19.775146484    
 1415-42-355     2364.0000000        2382.2094727       -18.209472656    
 1415-48-350     2358.0000000        2366.6091309       -8.6091308594    
 1415-56-11      2354.0000000        2348.5507812        5.4492187500    
 1415-61-27      2338.0000000        2335.4663086        2.5336914062    
 1415-66-49      2329.0000000        2330.0336914       -1.0336914062    
 1415-71-365     2322.0000000        2328.9328613       -6.9328613281    
 1323-2-88       2488.0000000        2493.8684082       -5.8684082031    
 1368-17-85      2462.0000000        2463.9177246       -1.9177246094    
 1368-22-81      2445.0000000        2449.9201660       -4.9201660156    
 1368-27-15      2436.0000000        2442.0729980       -6.0729980469    
 1368-42-355     2399.0000000        2407.9772949       -8.9772949219    
 1368-55-339     2388.0000000        2377.8193359        10.180664062    
 1368-66-49      2374.0000000        2357.4548340        16.545166016    
 1368-71-365     2362.0000000        2351.8520508        10.147949219    
 1327-71-365     2447.0000000        2407.5161133        39.483886719    
 1369-71-365     2420.0000000        2382.7402344        37.259765625    
 1326-71-365     2429.0000000        2395.2778320        33.722167969    
 1302-71-365     2442.0000000        2410.2119141        31.788085938    
 1269-37-48      2533.0000000        2551.6760254       -18.676025391    
 1269-66-1       2514.0000000        2505.5717773        8.4282226562    
 1269-71-365     2500.0000000        2496.2663574        3.7336425781    
 1277-66-59      2516.0000000        2504.5646973        11.435302734    
 1330-48-345     2523.0000000        2519.8522949        3.1477050781    
 1330-56-17      2523.0000000        2506.6862793        16.313720703    
 1322-2-94       2574.0000000        2554.1267090        19.873291016    
 1331-48-345     2533.0000000        2526.3278809        6.6721191406    
 1331-56-17      2532.0000000        2513.6354980        18.364501953    
 1331-61-54      2528.0000000        2506.4196777        21.580322266    
 1331-66-32      2513.0000000        2494.3740234        18.625976562    
 1331-71-40      2500.0000000        2488.0996094        11.900390625    
 1276-12-99      2565.0000000        2601.7731934       -36.773193359    
 1276-17-90      2570.0000000        2601.2172852       -31.217285156    
 1771-33-65      2644.0000000        2641.3535156        2.6464843750    
 1880-42-356     2637.0000000        2639.3041992       -2.3041992188    
 1880-48-335     2636.0000000        2686.1364746       -50.136474609    
 1880-61-60      2632.0000000        2651.8676758       -19.867675781    
 1880-66-25      2633.0000000        2642.6694336       -9.6694335938    
 1735-34-152     2644.0000000        2640.7202148        3.2797851562    
 1840-16-362     2630.0000000        2619.3510742        10.648925781    
 1794-3-36       2640.0000000        2642.7866211       -2.7866210938    
 1794-16-362     2640.0000000        2637.8925781        2.1074218750    
 1794-27-12      2642.0000000        2642.3571777      -0.35717773438    
 1794-71-39      2640.0000000        2642.6113281       -2.6113281250    
 1794-71-365     2635.0000000        2644.7075195       -9.7075195312    
 1796-16-362     2635.0000000        2622.5144043        12.485595703    
 1806-55-348     2639.0000000        2659.7780762       -20.778076172    
 1806-60-364     2635.0000000        2639.9592285       -4.9592285156    
 1806-66-1       2629.0000000        2632.0361328       -3.0361328125    
 1806-71-39      2638.0000000        2634.9533691        3.0466308594    
 1806-71-365     2635.0000000        2637.0761719       -2.0761718750    
 1788-55-348     2637.0000000        2657.5402832       -20.540283203    
 1788-60-364     2632.0000000        2638.5854492       -6.5854492188    
 1788-66-21      2631.0000000        2632.9982910       -1.9982910156    
 1788-71-39      2631.0000000        2638.4797363       -7.4797363281    
 1788-71-365     2633.0000000        2640.8869629       -7.8869628906    
 1782-42-355     2633.0000000        2630.6142578        2.3857421875    
 1782-48-348     2631.0000000        2674.0688477       -43.068847656    
 1782-55-348     2635.0000000        2659.6464844       -24.646484375    
 1782-60-364     2631.0000000        2639.9265137       -8.9265136719    
 1782-66-28      2628.0000000        2632.4992676       -4.4992675781    
 1782-71-39      2628.0000000        2638.6713867       -10.671386719    
 1782-71-365     2631.0000000        2641.0927734       -10.092773438    
 1807-66-28      2633.0000000        2633.1623535      -0.16235351562    
 1807-71-39      2634.0000000        2637.9692383       -3.9692382812    
 1807-71-365     2634.0000000        2640.3386230       -6.3386230469    
 1896-55-348     2594.0000000        2618.8518066       -24.851806641    
 1881-71-39      2601.0000000        2594.7446289        6.2553710938    
 1881-71-365     2589.0000000        2597.5688477       -8.5688476562    
 1841-1-357      2580.0000000        2585.3347168       -5.3347167969    
 1773-34-91      2602.0000000        2595.1176758        6.8823242188    
 1821-48-302     2600.0000000        2644.7504883       -44.750488281    
 1798-16-362     2587.0000000        2606.7385254       -19.738525391    
 1797-48-348     2599.0000000        2649.2375488       -50.237548828    
 1797-55-348     2605.0000000        2641.6337891       -36.633789062    
 1797-60-354     2596.0000000        2622.4753418       -26.475341797    
 1797-66-28      2599.0000000        2611.9638672       -12.963867188    
 1797-71-39      2603.0000000        2613.5434570       -10.543457031    
 1797-71-365     2602.0000000        2615.1081543       -13.108154297    
 1789-42-356     2598.0000000        2614.0388184       -16.038818359    
 1789-55-348     2598.0000000        2641.4890137       -43.489013672    
 1789-60-364     2591.0000000        2622.2648926       -31.264892578    
 1789-66-28      2592.0000000        2611.8476562       -19.847656250    
 1789-71-39      2594.0000000        2613.7160645       -19.716064453    
 1789-71-365     2596.0000000        2615.1401367       -19.140136719    
 1780-66-28      2599.0000000        2611.9638672       -12.963867188    
 1780-71-39      2602.0000000        2613.5434570       -11.543457031    
 1780-71-365     2604.0000000        2615.1081543       -11.108154297    
 1799-42-356     2601.0000000        2600.7231445       0.27685546875    
 1799-48-335     2589.0000000        2631.0520020       -42.052001953    
 1736-34-152     2616.0000000        2602.5866699        13.413330078    
 1613-42-355     2568.0000000        2575.9519043       -7.9519042969    
 1613-48-348     2573.0000000        2578.6645508       -5.6645507812    
 1613-55-348     2537.0000000        2544.8947754       -7.8947753906    
 1613-61-41      2504.0000000        2523.6433105       -19.643310547    
 1613-66-12      2480.0000000        2507.5371094       -27.537109375    
 1613-71-22      2473.0000000        2513.6210938       -40.621093750    
 1613-71-365     2471.0000000        2512.2443848       -41.244384766    
 1606-55-348     2541.0000000        2553.6774902       -12.677490234    
 1606-61-41      2508.0000000        2532.2888184       -24.288818359    
 1606-66-12      2483.0000000        2517.2414551       -34.241455078    
 1606-71-22      2477.0000000        2524.7819824       -47.781982422    
 1606-71-365     2475.0000000        2523.1679688       -48.167968750    
 1620-2-90       2690.0000000        2620.6689453        69.331054688    
 1620-12-324     2672.0000000        2620.1464844        51.853515625    
 1620-16-362     2671.0000000        2619.5190430        51.480957031    
 1705-48-335     2651.0000000        2708.1279297       -57.127929688    
 1705-56-16      2668.0000000        2693.0798340       -25.079833984    
 1705-61-60      2643.0000000        2672.2290039       -29.229003906    
 1705-66-25      2663.0000000        2660.9096680        2.0903320312    
 1530-48-335     2610.0000000        2662.3547363       -52.354736328    
 1530-56-16      2698.0000000        2654.3537598        43.646240234    
 1530-61-60      2732.0000000        2646.2011719        85.798828125    
 1434-37-27      2699.0000000        2640.5063477        58.493652344    
 1434-42-356     2704.0000000        2636.4504395        67.549560547    
 1434-56-17      2711.0000000        2619.5686035        91.431396484    
 1434-60-321     2712.0000000        2611.5344238        100.46557617    
 1434-65-298     2716.0000000        2603.1611328        112.83886719    
 1434-71-365     2715.0000000        2595.4426270        119.55737305    
 1384-48-335     2782.0000000        2759.5795898        22.420410156    
 1344-48-348     2732.0000000        2715.3579102        16.642089844    
 1344-55-348     2741.0000000        2712.0124512        28.987548828    
 1344-61-41      2745.0000000        2710.3125000        34.687500000    
 1344-66-5       2740.0000000        2708.7956543        31.204345703    
 1344-71-356     2734.0000000        2705.6713867        28.328613281    
 1354-2-93       2721.0000000        2685.6879883        35.312011719    
 1354-7-52       2719.0000000        2685.6455078        33.354492188    
 1354-12-102     2718.0000000        2685.4589844        32.541015625    
 1354-17-71      2715.0000000        2685.1210938        29.878906250    
 1354-22-32      2708.0000000        2684.5810547        23.418945312    
 1354-32-90      2708.0000000        2684.6416016        23.358398438    
 1354-38-60      2700.0000000        2684.5808105        15.419189453    
 1358-32-90      2708.0000000        2673.9877930        34.012207031    
 1358-48-336     2704.0000000        2668.1611328        35.838867188    
 846-17-5        2368.0000000        2370.6550293       -2.6550292969    
 846-22-33       2362.0000000        2359.0207520        2.9792480469    
 846-48-348      2367.0000000        2361.8649902        5.1350097656    
 846-61-25       2372.0000000        2359.4946289        12.505371094    
 846-65-362      2372.0000000        2355.9699707        16.030029297    
 846-71-365      2376.0000000        2356.6528320        19.347167969    
 829-48-348      2368.0000000        2374.4035645       -6.4035644531    
 829-55-353      2372.0000000        2372.8444824      -0.84448242188    
 829-61-35       2375.0000000        2374.1047363       0.89526367188    
 829-65-362      2373.0000000        2370.7712402        2.2287597656    
 829-71-365      2379.0000000        2371.9990234        7.0009765625    
 839-12-121      2371.0000000        2383.3664551       -12.366455078    
 839-71-365      2370.0000000        2360.8608398        9.1391601562    
 817-1-220       2378.0000000        2393.1518555       -15.151855469    
 817-6-331       2379.0000000        2391.2719727       -12.271972656    
 817-12-8        2379.0000000        2387.8449707       -8.8449707031    
 813-32-87       2359.0000000        2367.6218262       -8.6218261719    
 813-37-33       2360.0000000        2367.6967773       -7.6967773438    
 813-42-350      2369.0000000        2371.1738281       -2.1738281250    
 813-48-348      2377.0000000        2375.3867188        1.6132812500    
 813-56-17       2381.0000000        2373.7287598        7.2712402344    
 813-60-323      2381.0000000        2375.6916504        5.3083496094    
 813-65-301      2379.0000000        2372.0556641        6.9443359375    
 813-71-365      2386.0000000        2373.4389648        12.561035156    
 818-17-5        2377.0000000        2385.8676758       -8.8676757812    
 820-1-108       2362.0000000        2378.0263672       -16.026367188    
 812-17-5        2369.0000000        2379.6198730       -10.619873047    
 812-36-157      2336.0000000        2361.1193848       -25.119384766    
 812-56-17       2373.0000000        2363.1755371        9.8244628906    
 812-61-61       2364.0000000        2364.1457520      -0.14575195312    
 812-66-19       2373.0000000        2361.4077148        11.592285156    
 811-56-19       2372.0000000        2364.0502930        7.9497070312    
 811-66-20       2372.0000000        2362.4831543        9.5168457031    
 796-65-362      2378.0000000        2360.2160645        17.783935547    
 796-71-365      2379.0000000        2359.6962891        19.303710938    
 833-8-18        2360.0000000        2361.0507812       -1.0507812500    
 822-1-63        2365.0000000        2366.6992188       -1.6992187500    
 830-1-365       2364.0000000        2357.2089844        6.7910156250    
 821-56-17       2359.0000000        2337.0332031        21.966796875    
 821-61-61       2360.0000000        2336.8461914        23.153808594    
 845-1-73        2315.0000000        2289.8664551        25.133544922    
 845-7-2         2316.0000000        2289.8781738        26.121826172    
 845-11-272      2315.0000000        2289.1088867        25.891113281    
 845-16-318      2306.0000000        2286.5187988        19.481201172    
 845-22-33       2308.0000000        2281.7302246        26.269775391    
 845-31-351      2303.0000000        2274.9462891        28.053710938    
 845-36-62       2300.0000000        2270.4445801        29.555419922    
 845-42-350      2299.0000000        2263.0014648        35.998535156    
 845-48-348      2301.0000000        2261.5256348        39.474365234    
 845-56-19       2310.0000000        2258.7495117        51.250488281    
 845-60-323      2310.0000000        2256.3688965        53.631103516    
 845-65-301      2309.0000000        2253.4182129        55.581787109    
 845-71-13       2316.0000000        2249.8078613        66.192138672    
 1183-16-315     2059.0000000        2079.4619141       -20.461914062    
 1183-26-354     2042.0000000        2052.0444336       -10.044433594    
 1183-31-362     2037.0000000        2040.9456787       -3.9456787109    
 1183-36-356     2032.0000000        2030.8282471        1.1717529297    
 1183-42-350     2023.0000000        2023.0802002      -8.02001953125E-02
 1183-48-348     2015.0000000        2017.8094482       -2.8094482422    
 1183-66-25      1980.0000000        1982.0228271       -2.0228271484    
 1183-71-365     2002.0000000        1996.8957520        5.1042480469    
 1190-56-23      2001.0000000        2003.5352783       -2.5352783203    
 1190-61-54      1992.0000000        1989.0479736        2.9520263672    
 1190-66-25      1979.0000000        1976.3439941        2.6560058594    
 1186-3-344      2064.0000000        2082.3217773       -18.321777344    
 1186-5-69       2064.0000000        2082.0703125       -18.070312500    
 1186-17-6       2057.0000000        2075.5451660       -18.545166016    
 1185-10-213     2065.0000000        2081.2702637       -16.270263672    
 1178-38-335     2020.0000000        2020.1535645      -0.15356445312    
 1178-42-349     2004.0000000        2012.6322021       -8.6322021484    
 1178-48-349     1996.0000000        2005.4262695       -9.4262695312    
 1178-55-353     1980.0000000        1991.6999512       -11.699951172    
 1178-61-21      1956.0000000        1970.1787109       -14.178710938    
 1178-66-34      1939.0000000        1957.6981201       -18.698120117    
 1178-71-365     1990.0000000        1987.2283936        2.7716064453    
 1182-66-25      1954.0000000        1962.7889404       -8.7889404297    
 1132-12-4       2069.0000000        2090.9511719       -21.951171875    
 1134-1-73       2069.0000000        2090.6088867       -21.608886719    
 1148-17-12      2046.0000000        2079.2060547       -33.206054688    
 1148-21-356     2038.0000000        2064.9790039       -26.979003906    
 1148-27-27      2033.0000000        2053.6523438       -20.652343750    
 1148-31-348     2027.0000000        2044.3492432       -17.349243164    
 1148-37-23      2022.0000000        2033.9216309       -11.921630859    
 1148-42-349     2011.0000000        2029.9355469       -18.935546875    
 1148-48-348     2000.0000000        2022.0601807       -22.060180664    
 1148-55-353     1979.0000000        1999.4866943       -20.486694336    
 1148-61-34      1951.0000000        1971.0716553       -20.071655273    
 1148-66-6       1935.0000000        1962.0654297       -27.065429688    
 1148-71-365     1952.0000000        1972.7650146       -20.765014648    
 1177-35-321     2025.0000000        2024.2692871       0.73071289062    
 1177-42-349     2007.0000000        2015.4412842       -8.4412841797    
 1177-48-348     1997.0000000        2007.2479248       -10.247924805    
 1177-55-353     1979.0000000        1990.5841064       -11.584106445    
 1177-61-21      1949.0000000        1964.5363770       -15.536376953    
 1177-66-34      1937.0000000        1955.8005371       -18.800537109    
 1177-71-50      1949.0000000        1965.3945312       -16.394531250    
 1105-12-4       2060.0000000        2093.8627930       -33.862792969    
 1105-16-333     2053.0000000        2088.1455078       -35.145507812    
 1105-21-356     2044.0000000        2072.1806641       -28.180664062    
 1106-42-349     2018.0000000        2038.9503174       -20.950317383    
 1106-55-353     1984.0000000        2008.9827881       -24.982788086    
 1106-61-13      1958.0000000        1981.9738770       -23.973876953    
 1106-66-6       1939.0000000        1971.1440430       -32.144042969    
 1106-71-365     1953.0000000        1981.9064941       -28.906494141    
 1102-66-6       1941.0000000        1974.7847900       -33.784790039    
 1102-71-365     1950.0000000        1983.2670898       -33.267089844    
 1120-3-152      2054.0000000        2091.6867676       -37.686767578    
 1089-42-349     2026.0000000        2033.8992920       -7.8992919922    
 1089-48-349     2010.0000000        2023.1199951       -13.119995117    
 1089-55-353     1994.0000000        2005.9378662       -11.937866211    
 1089-61-34      1975.0000000        1981.4863281       -6.4863281250    
 1089-66-6       1960.0000000        1972.0804443       -12.080444336    
 1089-71-365     1971.0000000        1984.2916260       -13.291625977    
 1093-66-6       1959.0000000        1972.0476074       -13.047607422    
 1093-71-365     1971.0000000        1984.4321289       -13.432128906    
 1087-48-349     1998.0000000        2025.6461182       -27.646118164    
 1087-61-24      1992.0000000        1989.4492188        2.5507812500    
 1087-71-70      1979.0000000        1986.0704346       -7.0704345703    
 1097-15-1       2056.0000000        2099.2480469       -43.248046875    
 996-26-315      2108.0000000        2101.5107422        6.4892578125    
 996-48-349      2065.0000000        2050.5153809        14.484619141    
 996-55-353      2055.0000000        2037.1912842        17.808715820    
 996-61-11       2037.0000000        2015.6901855        21.309814453    
 996-66-6        2034.0000000        2010.9423828        23.057617188    
 996-71-365      2036.0000000        2016.9556885        19.044311523    
 995-39-335      2084.0000000        2062.4038086        21.596191406    
 995-42-349      2064.0000000        2055.5253906        8.4746093750    
 995-55-353      2044.0000000        2031.0084229        12.991577148    
 995-61-34       2030.0000000        2009.3887939        20.611206055    
 995-66-6        2019.0000000        2000.5181885        18.481811523    
 995-71-365      2033.0000000        2006.7591553        26.240844727    
 1090-12-5       2086.0000000        2109.5141602       -23.514160156    
 1090-17-5       2083.0000000        2106.4829102       -23.482910156    
 969-56-19       2115.0000000        2137.0327148       -22.032714844    
 969-71-365      2107.0000000        2119.6911621       -12.691162109    
 983-42-349      2090.0000000        2083.1418457        6.8581542969    
 983-55-353      2067.0000000        2064.4384766        2.5615234375    
 983-61-34       2057.0000000        2050.7224121        6.2775878906    
 983-66-6        2052.0000000        2041.7886963        10.211303711    
 983-71-365      2058.0000000        2043.9293213        14.070678711    
 982-39-238      2104.0000000        2093.2111816        10.788818359    
 921-42-305      2120.0000000        2097.2167969        22.783203125    
 921-48-349      2116.0000000        2090.6164551        25.383544922    
 921-61-34       2099.0000000        2064.1967773        34.803222656    
 921-65-356      2092.0000000        2055.1484375        36.851562500    
 921-71-365      2090.0000000        2054.8569336        35.143066406    
 924-43-60       2107.0000000        2085.3684082        21.631591797    
 924-48-348      2109.0000000        2080.0705566        28.929443359    
 924-55-353      2097.0000000        2065.0583496        31.941650391    
 924-61-34       2089.0000000        2048.6579590        40.342041016    
 924-66-6        2081.0000000        2037.7987061        43.201293945    
 924-71-365      2078.0000000        2039.6799316        38.320068359    
 909-56-16       2118.0000000        2092.7751465        25.224853516    
 911-34-337      2159.0000000        2134.2646484        24.735351562    
 900-56-19       2180.0000000        2164.3852539        15.614746094    
 900-61-61       2192.0000000        2159.1472168        32.852783203    
 848-56-18       2195.0000000        2183.7124023        11.287597656    
 848-66-28       2195.0000000        2173.2436523        21.756347656    
 826-56-19       2208.0000000        2191.6389160        16.361083984    
 800-61-61       2207.0000000        2192.4973145        14.502685547    
 800-66-28       2194.0000000        2187.4985352        6.5014648438    
 803-33-59       2215.0000000        2216.6835938       -1.6835937500    
 852-2-305       2140.0000000        2153.2822266       -13.282226562    
 1249-56-27      2347.0000000        2314.0261230        32.973876953    
 1249-66-13      2266.0000000        2248.2041016        17.795898438    
 1249-71-365     2273.0000000        2236.2497559        36.750244141    
 1235-22-32      2376.0000000        2379.1748047       -3.1748046875    
 1235-42-362     2298.0000000        2332.7770996       -34.777099609    
 1235-48-357     2338.0000000        2347.6074219       -9.6074218750    
 1235-56-32      2326.0000000        2321.0261230        4.9738769531    
 1238-48-320     2316.0000000        2347.6591797       -31.659179688    
 1238-56-10      2288.0000000        2322.2766113       -34.276611328    
 1238-66-10      2251.0000000        2256.8330078       -5.8330078125    
 1238-71-41      2262.0000000        2242.1013184        19.898681641    
 1238-71-365     2267.0000000        2243.0742188        23.925781250    
 1225-1-365      2430.0000000        2409.5734863        20.426513672    
 1200-56-30      2268.0000000        2341.6276855       -73.627685547    
 1200-66-10      2231.0000000        2282.7021484       -51.702148438    
 1200-71-40      2241.0000000        2269.9411621       -28.941162109    
 1198-71-48      2398.0000000        2274.1477051        123.85229492    
 1262-48-320     2313.0000000        2342.0471191       -29.047119141    
 1262-56-10      2285.0000000        2314.3278809       -29.327880859    
 1262-60-362     2250.0000000        2259.4602051       -9.4602050781    
 1262-66-10      2246.0000000        2243.6354980        2.3645019531    
 1262-71-41      2257.0000000        2227.2392578        29.760742188    
 1263-48-320     2313.0000000        2341.5102539       -28.510253906    
 1263-56-10      2284.0000000        2312.3449707       -28.344970703    
 1263-60-362     2250.0000000        2253.7536621       -3.7536621094    
 1263-66-10      2246.0000000        2239.1264648        6.8735351562    
 1263-71-60      2257.0000000        2227.4025879        29.597412109    
 1263-71-365     2262.0000000        2229.6040039        32.395996094    
 1239-17-44      2388.0000000        2391.2465820       -3.2465820312    
 1239-22-32      2374.0000000        2375.7814941       -1.7814941406    
 1239-43-5       2298.0000000        2331.5395508       -33.539550781    
 1239-48-364     2319.0000000        2346.3093262       -27.309326172    
 1239-56-41      2290.0000000        2319.3876953       -29.387695312    
 1239-60-362     2257.0000000        2269.5490723       -12.549072266    
 1239-66-10      2254.0000000        2253.6101074       0.38989257812    
 1239-71-365     2270.0000000        2244.2519531        25.748046875    
 1232-48-321     2316.0000000        2349.9414062       -33.941406250    
 1232-56-27      2288.0000000        2325.3837891       -37.383789062    
 1232-60-361     2254.0000000        2278.3041992       -24.304199219    
 1232-66-10      2251.0000000        2262.2453613       -11.245361328    
 1232-71-41      2262.0000000        2250.8452148        11.154785156    
 1241-56-27      2287.0000000        2319.0346680       -32.034667969    
 1241-66-10      2250.0000000        2251.6950684       -1.6950683594    
 1241-71-40      2260.0000000        2240.0185547        19.981445312    
 1270-56-30      2282.0000000        2314.7954102       -32.795410156    
 1270-71-42      2255.0000000        2237.5698242        17.430175781    
 1273-43-1       2285.0000000        2324.9020996       -39.902099609    
 1273-48-364     2306.0000000        2340.8896484       -34.889648438    
 1273-56-32      2276.0000000        2317.3117676       -41.311767578    
 1273-60-362     2242.0000000        2268.2287598       -26.228759766    
 1273-65-348     2239.0000000        2253.1083984       -14.108398438    
 1273-71-365     2255.0000000        2245.5798340        9.4201660156    
 1256-1-365      2388.0000000        2394.3149414       -6.3149414062    
 1234-43-5       2295.0000000        2329.0700684       -34.070068359    
 1234-48-364     2316.0000000        2344.8835449       -28.883544922    
 1234-56-32      2288.0000000        2319.2226562       -31.222656250    
 1234-60-362     2254.0000000        2269.4345703       -15.434570312    
 1233-56-32      2288.0000000        2325.9802246       -37.980224609    
 1233-65-337     2255.0000000        2264.4089355       -9.4089355469    
 1233-71-365     2272.0000000        2254.3366699        17.663330078    
 1227-17-44      2392.0000000        2398.6655273       -6.6655273438    
 1227-22-58      2377.0000000        2383.4799805       -6.4799804688    
 1227-31-335     2354.0000000        2367.5134277       -13.513427734    
 1227-43-5       2301.0000000        2338.7268066       -37.726806641    
 1227-48-364     2322.0000000        2356.3146973       -34.314697266    
 1227-56-32      2295.0000000        2334.0983887       -39.098388672    
 1227-61-60      2261.0000000        2291.0703125       -30.070312500    
 1227-71-365     2273.0000000        2264.3239746        8.6760253906    
 1208-1-364      2408.0000000        2410.1166992       -2.1166992188    
 1208-6-360      2405.0000000        2408.5351562       -3.5351562500    
 1208-11-360     2387.0000000        2401.1538086       -14.153808594    
 1208-16-357     2389.0000000        2403.8093262       -14.809326172    
 1208-21-361     2372.0000000        2388.2475586       -16.247558594    
 1208-26-354     2402.0000000        2377.6198730        24.380126953    
 1208-31-362     2395.0000000        2370.4616699        24.538330078    
 1219-22-33      2371.0000000        2384.9819336       -13.981933594    
 1219-33-165     2333.0000000        2360.7717285       -27.771728516    
 1219-42-362     2295.0000000        2340.0205078       -45.020507812    
 1219-48-357     2316.0000000        2355.6198730       -39.619873047    
 1219-56-32      2290.0000000        2332.4904785       -42.490478516    
 1219-60-362     2256.0000000        2288.4824219       -32.482421875    
 1219-66-10      2253.0000000        2271.6328125       -18.632812500    
 1219-71-365     2269.0000000        2260.2294922        8.7705078125    
 1217-56-27      2292.0000000        2334.3774414       -42.377441406    
 1217-71-365     2271.0000000        2262.3220215        8.6779785156    
 1205-33-160     2338.0000000        2367.4648438       -29.464843750    
 1205-42-362     2300.0000000        2346.2802734       -46.280273438    
 1205-48-357     2322.0000000        2361.8562012       -39.856201172    
 1205-56-34      2298.0000000        2340.1611328       -42.161132812    
 1205-66-10      2296.0000000        2281.6306152        14.369384766    
 1231-7-66       2392.0000000        2400.6313477       -8.6313476562    
 1231-12-57      2377.0000000        2392.1013184       -15.101318359    
 1231-17-4       2375.0000000        2397.1101074       -22.110107422    
 1231-22-32      2364.0000000        2380.0961914       -16.096191406    
 1231-27-10      2353.0000000        2371.4311523       -18.431152344    
 1231-31-335     2341.0000000        2364.3701172       -23.370117188    
 1231-37-335     2333.0000000        2334.7871094       -1.7871093750    
 1179-6-115      2415.0000000        2416.4636230       -1.4636230469    
 1168-17-47      2403.0000000        2411.9577637       -8.9577636719    
 1168-22-32      2392.0000000        2399.9040527       -7.9040527344    
 1168-36-335     2315.0000000        2357.7819824       -42.781982422    
 1114-1-365      2440.0000000        2437.4340820        2.5659179688    
 1122-17-47      2418.0000000        2422.3588867       -4.3588867188    
 1122-22-32      2391.0000000        2411.6755371       -20.675537109    
 1122-42-356     2298.0000000        2370.4914551       -72.491455078    
 1122-48-335     2336.0000000        2387.1604004       -51.160400391    
 1140-7-66       2423.0000000        2427.4094238       -4.4094238281    
 1140-12-57      2419.0000000        2418.6931152       0.30688476562    
 1140-17-4       2406.0000000        2419.2133789       -13.213378906    
 1140-22-32      2395.0000000        2409.0356445       -14.035644531    
 1140-31-335     2361.0000000        2388.9287109       -27.928710938    
 1140-36-345     2332.0000000        2368.4951172       -36.495117188    
 1193-48-321     2325.0000000        2367.1821289       -42.182128906    
 1193-56-30      2300.0000000        2346.1818848       -46.181884766    
 1176-48-320     2326.0000000        2370.6884766       -44.688476562    
 1176-56-10      2302.0000000        2350.5837402       -48.583740234    
 1176-60-361     2271.0000000        2312.8837891       -41.883789062    
 1176-66-10      2265.0000000        2294.8828125       -29.882812500    
 1176-71-40      2276.0000000        2279.2705078       -3.2705078125    
 1176-71-365     2282.0000000        2278.9738770        3.0261230469    
 1159-66-10      2352.0000000        2302.9584961        49.041503906    
 1159-71-62      2331.0000000        2288.8666992        42.133300781    
 1159-71-365     2326.0000000        2288.6542969        37.345703125    
 1160-71-62      2408.0000000        2292.1318359        115.86816406    
 1160-71-365     2409.0000000        2291.8061523        117.19384766    
 1147-42-356     2384.0000000        2366.7128906        17.287109375    
 1147-48-335     2391.0000000        2380.1955566        10.804443359    
 1147-56-17      2388.0000000        2362.2622070        25.737792969    
 1141-1-274      2417.0000000        2429.4343262       -12.434326172    
 1141-7-176      2412.0000000        2428.1809082       -16.180908203    
 1141-11-311     2405.0000000        2422.3989258       -17.398925781    
 1141-17-44      2406.0000000        2421.4206543       -15.420654297    
 1141-22-30      2388.0000000        2410.4011230       -22.401123047    
 1141-26-349     2370.0000000        2397.3149414       -27.314941406    
 1141-31-362     2359.0000000        2389.2949219       -30.294921875    
 1141-36-356     2320.0000000        2367.5900879       -47.590087891    
 1141-42-362     2302.0000000        2367.7736816       -65.773681641    
 1141-48-364     2330.0000000        2383.1958008       -53.195800781    
 1141-56-32      2308.0000000        2365.6977539       -57.697753906    
 1141-60-362     2280.0000000        2334.6667480       -54.666748047    
 1141-66-1       2273.0000000        2317.5644531       -44.564453125    
 1141-71-365     2289.0000000        2307.5524902       -18.552490234    
 1121-17-44      2430.0000000        2427.8564453        2.1435546875    
 1121-22-33      2397.0000000        2418.7285156       -21.728515625    
 1121-31-335     2362.0000000        2397.4482422       -35.448242188    
 1121-35-345     2332.0000000        2379.9692383       -47.969238281    
 1121-42-356     2319.0000000        2375.0219727       -56.021972656    
 1121-48-355     2339.0000000        2387.7521973       -48.752197266    
 1121-56-32      2335.0000000        2370.6416016       -35.641601562    
 1121-60-362     2321.0000000        2341.1489258       -20.148925781    
 1121-65-348     2330.0000000        2323.9274902        6.0725097656    
 1121-71-365     2333.0000000        2313.0317383        19.968261719    
 1192-71-55      2429.0000000        2279.4440918        149.55590820    
 1157-48-322     2327.0000000        2375.8642578       -48.864257812    
 1157-56-10      2305.0000000        2356.4575195       -51.457519531    
 1157-60-361     2275.0000000        2322.7687988       -47.768798828    
 1157-66-10      2269.0000000        2304.6625977       -35.662597656    
 1157-71-40      2280.0000000        2290.8195801       -10.819580078    
 1180-48-323     2405.0000000        2369.8442383        35.155761719    
 1167-71-365     2406.0000000        2278.8093262        127.19067383    
 1170-71-365     2406.0000000        2280.6152344        125.38476562    
 1172-71-365     2406.0000000        2281.8742676        124.12573242    
 1163-71-365     2407.0000000        2277.8891602        129.11083984    
 1155-71-365     2404.0000000        2284.2800293        119.71997070    
 1144-71-365     2418.0000000        2301.6987305        116.30126953    
 1080-22-33      2448.0000000        2438.0749512        9.9250488281    
 1080-31-335     2422.0000000        2412.3771973        9.6228027344    
 1080-42-356     2428.0000000        2389.8737793        38.126220703    
 1080-48-355     2431.0000000        2399.9733887        31.026611328    
 1085-42-356     2323.0000000        2387.6315918       -64.631591797    
 1085-48-355     2409.0000000        2397.0366211        11.963378906    
 1091-71-56      2424.0000000        2327.8037109        96.196289062    
 1048-71-365     2439.0000000        2342.7924805        96.207519531    
 1012-71-365     2441.0000000        2354.7646484        86.235351562    
 1039-48-322     2338.0000000        2408.9848633       -70.984863281    
 1039-56-30      2315.0000000        2393.5056152       -78.505615234    
 1039-60-362     2288.0000000        2374.7009277       -86.700927734    
 1039-66-13      2281.0000000        2359.4274902       -78.427490234    
 1039-71-365     2299.0000000        2351.0498047       -52.049804688    
 1040-71-365     2448.0000000        2351.5065918        96.493408203    
 1075-17-44      2442.0000000        2440.7331543        1.2668457031    
 1075-22-33      2435.0000000        2432.3208008        2.6791992188    
 1075-31-335     2413.0000000        2409.1682129        3.8317871094    
 1053-42-357     2358.0000000        2390.8928223       -32.892822266    
 1056-48-335     2338.0000000        2402.9038086       -64.903808594    
 1056-56-17      2317.0000000        2385.9370117       -68.937011719    
 1016-17-32      2422.0000000        2449.2685547       -27.268554688    
 1016-31-335     2366.0000000        2416.9387207       -50.938720703    
 1016-37-319     2356.0000000        2394.8879395       -38.887939453    
 1011-22-33      2391.0000000        2444.7492676       -53.749267578    
 1015-42-356     2311.0000000        2401.0839844       -90.083984375    
 1015-48-337     2332.0000000        2411.5339355       -79.533935547    
 1015-56-19      2335.0000000        2395.9248047       -60.924804688    
 1015-61-53      2295.0000000        2373.0056152       -78.005615234    
 1015-66-32      2286.0000000        2357.1779785       -71.177978516    
 1094-1-277      2430.0000000        2438.6923828       -8.6923828125    
 1094-6-340      2427.0000000        2438.2082520       -11.208251953    
 1094-10-27      2424.0000000        2432.8156738       -8.8156738281    
 1077-7-176      2432.0000000        2437.7141113       -5.7141113281    
 1063-17-46      2415.0000000        2433.7929688       -18.792968750    
 1063-22-33      2394.0000000        2427.7978516       -33.797851562    
 1034-36-335     2322.0000000        2397.7448730       -75.744873047    
 1034-42-362     2309.0000000        2395.2827148       -86.282714844    
 1034-48-357     2346.0000000        2406.8078613       -60.807861328    
 1034-56-34      2323.0000000        2394.2421875       -71.242187500    
 1034-66-1       2293.0000000        2357.2578125       -64.257812500    
 1034-71-54      2305.0000000        2349.0451660       -44.045166016    
 1034-71-365     2310.0000000        2348.1289062       -38.128906250    
 997-17-46       2437.0000000        2442.7478027       -5.7478027344    
 997-22-33       2420.0000000        2438.6267090       -18.626708984    
 1008-1-121      2454.0000000        2458.0043945       -4.0043945312    
 1049-17-46      2418.0000000        2436.2407227       -18.240722656    
 1049-31-335     2358.0000000        2409.0244141       -51.024414062    
 1049-36-335     2342.0000000        2392.1503906       -50.150390625    
 1049-42-356     2307.0000000        2391.0178223       -84.017822266    
 1049-48-334     2341.0000000        2403.6765137       -62.676513672    
 1049-56-18      2319.0000000        2390.0270996       -71.027099609    
 1049-61-53      2292.0000000        2367.4587402       -75.458740234    
 1007-11-194     2432.0000000        2448.9355469       -16.935546875    
 1007-17-4       2433.0000000        2446.3681641       -13.368164062    
 1007-22-32      2411.0000000        2439.7370605       -28.737060547    
 1007-27-10      2401.0000000        2424.4550781       -23.455078125    
 1007-31-335     2370.0000000        2417.7880859       -47.788085938    
 1007-37-319     2361.0000000        2396.1630859       -35.163085938    
 1006-1-364      2442.0000000        2458.4365234       -16.436523438    
 1006-7-66       2438.0000000        2458.3439941       -20.343994141    
 1006-11-258     2368.0000000        2450.8728027       -82.872802734    
 1006-17-44      2426.0000000        2449.3513184       -23.351318359    
 1065-42-356     2413.0000000        2391.9311523        21.068847656    
 1065-48-334     2415.0000000        2401.7734375        13.226562500    
 1065-56-18      2414.0000000        2392.7229004        21.277099609    
 1065-66-24      2413.0000000        2358.9702148        54.029785156    
 991-22-34       2435.0000000        2441.1501465       -6.1501464844    
 991-26-279      2422.0000000        2429.0859375       -7.0859375000    
 991-31-335      2404.0000000        2428.6391602       -24.639160156    
 991-37-319      2396.0000000        2410.2004395       -14.200439453    
 991-42-356      2390.0000000        2404.7939453       -14.793945312    
 991-48-334      2394.0000000        2412.1782227       -18.178222656    
 991-66-27       2392.0000000        2371.7341309        20.265869141    
 976-1-365       2456.0000000        2464.1811523       -8.1811523438    
 963-1-365       2458.0000000        2467.2609863       -9.2609863281    
 964-1-365       2458.0000000        2467.1582031       -9.1582031250    
 960-1-365       2471.0000000        2468.3073730        2.6926269531    
 953-1-364       2473.0000000        2472.1953125       0.80468750000    
 950-17-4        2472.0000000        2464.3503418        7.6496582031    
 936-1-365       2461.0000000        2479.2978516       -18.297851562    
 932-1-365       2504.0000000        2482.0715332        21.928466797    
 944-42-356      2356.0000000        2415.9816895       -59.981689453    
 944-48-341      2376.0000000        2423.7167969       -47.716796875    
 926-1-365       2487.0000000        2483.8959961        3.1040039062    
 929-1-364       2484.0000000        2483.4570312       0.54296875000    
 929-6-340       2482.0000000        2481.0288086       0.97119140625    
 929-11-333      2478.0000000        2475.2529297        2.7470703125    
 929-16-301      2474.0000000        2472.9577637        1.0422363281    
 974-42-362      2301.0000000        2408.2277832       -107.22778320    
 974-48-336      2335.0000000        2416.9519043       -81.951904297    
 974-56-18       2322.0000000        2401.6132812       -79.613281250    
 957-1-365       2481.0000000        2474.2875977        6.7124023438    
 942-1-365       2544.0000000        2480.9208984        63.079101562    
 937-1-364       2473.0000000        2482.2612305       -9.2612304688    
 943-22-32       2442.0000000        2466.0583496       -24.058349609    
 943-26-279      2421.0000000        2453.7272949       -32.727294922    
 943-31-335      2403.0000000        2441.5925293       -38.592529297    
 943-36-335      2365.0000000        2421.3481445       -56.348144531    
 943-42-351      2351.0000000        2418.8540039       -67.854003906    
 943-48-336      2355.0000000        2426.5456543       -71.545654297    
 862-22-33       2507.0000000        2495.4790039        11.520996094    
 862-27-59       2490.0000000        2477.5166016        12.483398438    
 862-31-335      2453.0000000        2465.0729980       -12.072998047    
 862-36-336      2434.0000000        2448.3352051       -14.335205078    
 862-42-351      2426.0000000        2443.4941406       -17.494140625    
 862-48-337      2442.0000000        2443.8969727       -1.8969726562    
 901-1-364       2513.0000000        2495.0437012        17.956298828    
 907-37-342      2408.0000000        2426.1821289       -18.182128906    
 903-1-365       2503.0000000        2493.4348145        9.5651855469    
 895-42-356      2392.0000000        2427.8735352       -35.873535156    
 895-48-337      2386.0000000        2432.7172852       -46.717285156    
 898-1-32        2492.0000000        2491.7658691       0.23413085938    
 898-17-4        2491.0000000        2484.7412109        6.2587890625    
 889-22-32       2489.0000000        2479.0388184        9.9611816406    
 889-26-279      2467.0000000        2466.6726074       0.32739257812    
 889-31-335      2455.0000000        2452.8088379        2.1911621094    
 889-36-336      2425.0000000        2432.1638184       -7.1638183594    
 889-42-356      2380.0000000        2427.5949707       -47.594970703    
 889-48-337      2404.0000000        2431.9326172       -27.932617188    
 889-61-54       2384.0000000        2392.0302734       -8.0302734375    
 883-42-356      2375.0000000        2431.0859375       -56.085937500    
 621-37-343      2434.0000000        2440.6877441       -6.6877441406    
 934-33-21       2430.0000000        2442.1125488       -12.112548828    
 863-1-365       2520.0000000        2510.4826660        9.5173339844    
 914-48-336      2386.0000000        2427.2775879       -41.277587891    
 914-61-55       2363.0000000        2388.1237793       -25.123779297    
 902-17-47       2483.0000000        2481.2810059        1.7189941406    
 902-22-32       2476.0000000        2473.1374512        2.8625488281    
 902-26-278      2456.0000000        2460.2231445       -4.2231445312    
 902-36-336      2408.0000000        2427.1955566       -19.195556641    
 902-42-356      2375.0000000        2422.2407227       -47.240722656    
 902-48-337      2392.0000000        2428.0212402       -36.021240234    
 902-61-54       2366.0000000        2388.2121582       -22.212158203    
 916-1-365       2494.0000000        2486.1186523        7.8813476562    
 916-7-298       2486.0000000        2484.2587891        1.7412109375    
 916-11-258      2482.0000000        2479.0222168        2.9777832031    
 916-17-32       2483.0000000        2476.8342285        6.1657714844    
 916-22-34       2477.0000000        2469.6369629        7.3630371094    
 916-26-278      2448.0000000        2456.9428711       -8.9428710938    
 916-36-336      2401.0000000        2426.7360840       -25.736083984    
 916-42-362      2381.0000000        2421.3061523       -40.306152344    
 916-48-335      2388.0000000        2427.3891602       -39.389160156    
 916-61-55       2363.0000000        2389.7998047       -26.799804688    
 917-42-362      2386.0000000        2421.3576660       -35.357666016    
 917-48-335      2398.0000000        2427.4152832       -29.415283203    
 905-1-365       2494.0000000        2488.9421387        5.0578613281    
 910-42-362      2406.0000000        2424.3435059       -18.343505859    
 897-1-365       2511.0000000        2491.3276367        19.672363281    
 864-1-364       2511.0000000        2505.4375000        5.5625000000    
 865-42-356      2388.0000000        2436.7919922       -48.791992188    
 865-48-335      2411.0000000        2439.6677246       -28.667724609    
 854-1-365       2516.0000000        2509.0146484        6.9853515625    
 856-1-365       2515.0000000        2508.3825684        6.6174316406    
 851-22-34       2501.0000000        2495.5178223        5.4821777344    
 851-26-278      2480.0000000        2485.4326172       -5.4326171875    
 851-37-342      2445.0000000        2450.4497070       -5.4497070312    
 851-48-337      2426.0000000        2448.5866699       -22.586669922    
 851-61-54       2417.0000000        2414.3264160        2.6735839844    
 843-1-365       2514.0000000        2515.0175781       -1.0175781250    
 841-1-365       2523.0000000        2517.9140625        5.0859375000    
 836-17-4        2508.0000000        2513.4667969       -5.4667968750    
 823-1-365       2528.0000000        2527.1479492       0.85205078125    
 859-48-337      2415.0000000        2442.1486816       -27.148681641    
 842-37-342      2445.0000000        2453.9101562       -8.9101562500    
 842-42-356      2428.0000000        2450.8601074       -22.860107422    
 842-48-337      2429.0000000        2452.2551270       -23.255126953    
 842-61-54       2421.0000000        2416.6210938        4.3789062500    
 831-42-351      2438.0000000        2460.1665039       -22.166503906    
 831-48-337      2434.0000000        2460.7148438       -26.714843750    
 828-42-351      2440.0000000        2461.4060059       -21.406005859    
 828-48-337      2437.0000000        2461.8989258       -24.898925781    
 819-1-365       2533.0000000        2532.0241699       0.97583007812    
 1254-71-42      2339.0000000        2344.0368652       -5.0368652344    
 1228-37-95      2395.0000000        2421.5974121       -26.597412109    
 1228-42-356     2381.0000000        2412.5854492       -31.585449219    
 1228-56-20      2381.0000000        2388.4692383       -7.4692382812    
 1228-66-25      2353.0000000        2362.6987305       -9.6987304688    
 1228-71-40      2348.0000000        2355.1164551       -7.1164550781    
 1199-48-344     2388.0000000        2413.1708984       -25.170898438    
 1199-56-20      2389.0000000        2400.5236816       -11.523681641    
 1199-61-60      2375.0000000        2385.3850098       -10.385009766    
 1199-66-25      2369.0000000        2374.9912109       -5.9912109375    
 1199-71-40      2361.0000000        2366.2368164       -5.2368164062    
 1243-42-362     2314.0000000        2372.9040527       -58.904052734    
 1243-56-18      2313.0000000        2339.6882324       -26.688232422    
 1243-61-60      2294.0000000        2320.5529785       -26.552978516    
 1243-66-27      2283.0000000        2304.1799316       -21.179931641    
 1243-71-56      2280.0000000        2302.7214355       -22.721435547    
 1218-71-365     2422.0000000        2280.6003418        141.39965820    
 1204-42-356     2298.0000000        2352.9414062       -54.941406250    
 1204-56-17      2295.0000000        2344.2463379       -49.246337891    
 1204-66-26      2264.0000000        2299.8200684       -35.820068359    
 1204-71-365     2283.0000000        2286.9318848       -3.9318847656    
 1131-71-365     2433.0000000        2325.0781250        107.92187500    
 1112-48-320     2331.0000000        2396.4338379       -65.433837891    
 1112-56-25      2321.0000000        2382.5688477       -61.568847656    
 1112-60-362     2302.0000000        2366.3093262       -64.309326172    
 1112-65-348     2295.0000000        2350.4570312       -55.457031250    
 1112-71-60      2306.0000000        2339.8669434       -33.866943359    
 1112-71-365     2310.0000000        2338.6496582       -28.649658203    
 1118-71-365     2460.0000000        2341.5761719        118.42382812    
 1111-71-362     2461.0000000        2352.4777832        108.52221680    
 1169-71-362     2447.0000000        2328.3757324        118.62426758    
 1100-48-348     2500.0000000        2445.8815918        54.118408203    
 1100-56-25      2499.0000000        2433.8078613        65.192138672    
 1100-61-56      2487.0000000        2417.8930664        69.106933594    
 1100-66-42      2474.0000000        2399.4331055        74.566894531    
 1100-71-365     2471.0000000        2391.3068848        79.693115234    
 1051-42-355     2511.0000000        2471.4511719        39.548828125    
 1051-48-365     2505.0000000        2461.3933105        43.606689453    
 1051-56-25      2501.0000000        2450.1728516        50.827148438    
 1051-61-42      2495.0000000        2433.1398926        61.860107422    
 1051-66-53      2487.0000000        2412.0603027        74.939697266    
 1051-71-365     2480.0000000        2406.3291016        73.670898438    
 1036-12-95      2539.0000000        2526.0429688        12.957031250    
 1036-26-349     2538.0000000        2510.7624512        27.237548828    
 1036-48-348     2513.0000000        2469.9343262        43.065673828    
 1036-56-25      2511.0000000        2458.9260254        52.073974609    
 1036-61-42      2505.0000000        2444.2822266        60.717773438    
 1036-66-53      2496.0000000        2425.8815918        70.118408203    
 1036-71-365     2487.0000000        2414.8588867        72.141113281    
 1025-56-27      2508.0000000        2450.1562500        57.843750000    
 1025-66-59      2497.0000000        2422.1152344        74.884765625    
 1054-66-59      2488.0000000        2402.8010254        85.198974609    
 1055-65-348     2483.0000000        2397.8100586        85.189941406    
 1001-56-18      2499.0000000        2439.0437012        59.956298828    
 1001-65-348     2495.0000000        2415.9182129        79.081787109    
 1027-56-18      2499.0000000        2437.8862305        61.113769531    
 1086-71-55      2451.0000000        2358.4716797        92.528320312    
 1099-26-349     2377.0000000        2423.0827637       -46.082763672    
 1099-43-4       2312.0000000        2388.3635254       -76.363525391    
 1099-48-362     2335.0000000        2394.6774902       -59.677490234    
 1099-56-9       2312.0000000        2379.6506348       -67.650634766    
 1042-48-355     2340.0000000        2409.4033203       -69.403320312    
 1042-56-25      2320.0000000        2394.9125977       -74.912597656    
 1042-60-362     2294.0000000        2379.0898438       -85.089843750    
 1042-65-348     2287.0000000        2364.3398438       -77.339843750    
 1042-71-365     2304.0000000        2355.0825195       -51.082519531    
 952-56-33       2509.0000000        2452.3500977        56.649902344    
 952-65-348      2501.0000000        2430.6894531        70.310546875    
 949-56-27       2530.0000000        2487.5634766        42.436523438    
 993-56-27       2504.0000000        2448.8593750        55.140625000    
 956-56-29       2515.0000000        2462.9438477        52.056152344    
 886-71-355      2505.0000000        2481.1533203        23.846679688    
 886-71-362      2497.0000000        2481.1142578        15.885742188    
 913-42-355      2532.0000000        2528.9638672        3.0361328125    
 913-48-334      2529.0000000        2520.0563965        8.9436035156    
 913-56-18       2525.0000000        2509.0332031        15.966796875    
 913-61-53       2521.0000000        2497.8237305        23.176269531    
 913-66-32       2513.0000000        2483.7893066        29.210693359    
 874-71-61       2503.0000000        2472.1296387        30.870361328    
 933-48-338      2507.0000000        2464.3613281        42.638671875    
 933-56-18       2504.0000000        2451.7675781        52.232421875    
 933-61-53       2501.0000000        2442.1904297        58.809570312    
 933-66-32       2498.0000000        2431.1684570        66.831542969    
 887-26-285      2524.0000000        2518.3232422        5.6767578125    
 887-31-335      2519.0000000        2506.4277344        12.572265625    
 887-37-1        2505.0000000        2495.2055664        9.7944335938    
 887-42-357      2478.0000000        2483.2021484       -5.2021484375    
 877-42-352      2515.0000000        2486.9699707        28.030029297    
 877-48-338      2518.0000000        2477.1770020        40.822998047    
 877-61-53       2510.0000000        2454.8173828        55.182617188    
 877-66-32       2509.0000000        2445.0976562        63.902343750    
 919-42-357      2478.0000000        2448.4255371        29.574462891    
 920-42-357      2473.0000000        2442.9675293        30.032470703    
 888-42-357      2467.0000000        2454.1464844        12.853515625    
 892-17-48       2512.0000000        2507.5209961        4.4790039062    
 892-22-37       2508.0000000        2499.2153320        8.7846679688    
 892-26-285      2497.0000000        2482.6101074        14.389892578    
 892-31-335      2484.0000000        2469.9445801        14.055419922    
 892-36-337      2472.0000000        2455.0878906        16.912109375    
 878-36-335      2464.0000000        2445.5681152        18.431884766    
 878-42-359      2467.0000000        2440.8674316        26.132568359    
 878-71-365      2502.0000000        2391.0500488        110.94995117    
 853-22-37       2515.0000000        2501.9990234        13.000976562    
 853-26-336      2491.0000000        2473.5686035        17.431396484    
 853-48-362      2470.0000000        2437.3542480        32.645751953    
 853-56-9        2454.0000000        2424.6933594        29.306640625    
 853-61-47       2458.0000000        2405.8271484        52.172851562    
 853-65-357      2495.0000000        2392.8715820        102.12841797    
 853-71-362      2511.0000000        2392.8315430        118.16845703    
 844-43-4        2467.0000000        2444.5981445        22.401855469    
 844-48-362      2462.0000000        2436.7595215        25.240478516    
 844-56-9        2474.0000000        2426.2392578        47.760742188    
 844-61-47       2465.0000000        2405.6774902        59.322509766    
 844-65-357      2498.0000000        2391.6630859        106.33691406    
 844-71-362      2515.0000000        2393.3498535        121.65014648    
 834-16-364      2533.0000000        2526.4658203        6.5341796875    
 834-26-280      2484.0000000        2481.0568848        2.9431152344    
 834-43-4        2465.0000000        2448.8034668        16.196533203    
 834-56-20       2471.0000000        2430.3178711        40.682128906    
 834-60-306      2458.0000000        2410.5871582        47.412841797    
 834-65-357      2497.0000000        2398.5219727        98.478027344    
 834-71-362      2514.0000000        2399.8266602        114.17333984    
 835-65-357      2500.0000000        2396.9780273        103.02197266    
 835-71-362      2518.0000000        2398.2639160        119.73608398    
 815-1-365       2541.0000000        2541.4309082      -0.43090820312    
 850-17-80       2544.0000000        2544.5156250      -0.51562500000    
 850-22-37       2543.0000000        2539.6396484        3.3603515625    
 850-26-285      2538.0000000        2530.6589355        7.3410644531    
 850-31-335      2532.0000000        2519.0097656        12.990234375    
 850-38-60       2520.0000000        2505.6987305        14.301269531    
 850-42-352      2509.0000000        2496.9675293        12.032470703    
 850-48-338      2512.0000000        2486.3269043        25.673095703    
 850-60-320      2501.0000000        2464.2617188        36.738281250    
 850-65-298      2503.0000000        2455.2917480        47.708251953    
 850-71-365      2504.0000000        2445.6635742        58.336425781    
 1259-66-59      2533.0000000        2542.6286621       -9.6286621094    
 1236-66-59      2562.0000000        2564.2038574       -2.2038574219    
 1260-66-59      2532.0000000        2537.6550293       -5.6550292969    
 1244-66-59      2536.0000000        2543.3278809       -7.3278808594    
 1252-35-23      2516.0000000        2516.1508789      -0.15087890625    
 1267-71-365     2476.0000000        2451.3417969        24.658203125    
 1253-37-90      2465.0000000        2476.3051758       -11.305175781    
 1253-42-355     2463.0000000        2467.3825684       -4.3825683594    
 1253-48-349     2460.0000000        2459.9721680       2.78320312500E-02
 1253-56-11      2455.0000000        2445.5717773        9.4282226562    
 1253-61-56      2448.0000000        2434.5009766        13.499023438    
 1253-66-59      2441.0000000        2424.0732422        16.926757812    
 1253-71-365     2429.0000000        2413.0307617        15.969238281    
 1245-37-90      2438.0000000        2446.9248047       -8.9248046875    
 1245-42-355     2425.0000000        2437.2741699       -12.274169922    
 1245-48-349     2420.0000000        2426.5029297       -6.5029296875    
 1245-55-357     2417.0000000        2413.3823242        3.6176757812    
 1245-61-12      2408.0000000        2399.4372559        8.5627441406    
 1245-66-49      2401.0000000        2390.9177246        10.082275391    
 1245-71-365     2392.0000000        2381.9106445        10.089355469    
 1250-17-86      2461.0000000        2470.7980957       -9.7980957031    
 1250-32-69      2422.0000000        2438.2792969       -16.279296875    
 1250-37-95      2405.0000000        2422.2875977       -17.287597656    
 1250-56-19      2380.0000000        2385.8906250       -5.8906250000    
 1250-61-60      2364.0000000        2371.5070801       -7.5070800781    
 1251-12-296     2472.0000000        2478.3095703       -6.3095703125    
 1251-17-86      2459.0000000        2469.1931152       -10.193115234    
 1251-32-69      2418.0000000        2435.8791504       -17.879150391    
 1251-37-95      2401.0000000        2418.6425781       -17.642578125    
 1251-42-356     2381.0000000        2409.3603516       -28.360351562    
 1251-48-334     2380.0000000        2398.2153320       -18.215332031    
 1251-56-19      2376.0000000        2383.0126953       -7.0126953125    
 1251-60-321     2362.0000000        2369.3549805       -7.3549804688    
 1251-65-298     2356.0000000        2360.4396973       -4.4396972656    
 1251-71-365     2351.0000000        2352.9792480       -1.9792480469    
 1226-48-344     2395.0000000        2417.5771484       -22.577148438    
 1226-56-19      2392.0000000        2402.2092285       -10.209228516    
 1226-61-60      2374.0000000        2386.6213379       -12.621337891    
 1226-66-25      2371.0000000        2378.1750488       -7.1750488281    
 1226-71-42      2363.0000000        2369.9660645       -6.9660644531    
 1195-12-297     2515.0000000        2502.4707031        12.529296875    
 1195-17-60      2511.0000000        2497.2248535        13.775146484    
 1195-32-69      2493.0000000        2471.0217285        21.978271484    
 1195-37-95      2484.0000000        2457.9960938        26.003906250    
 1195-48-344     2469.0000000        2438.7482910        30.251708984    
 1195-56-19      2423.0000000        2425.3447266       -2.3447265625    
 1195-66-25      2438.0000000        2400.2041016        37.795898438    
 1128-70-357     2457.0000000        2406.0654297        50.934570312    
 1128-71-365     2458.0000000        2403.3144531        54.685546875    
 1110-17-78      2537.0000000        2524.8752441        12.124755859    
 1110-32-70      2525.0000000        2506.1828613        18.817138672    
 1110-37-1       2507.0000000        2497.7033691        9.2966308594    
 1137-16-357     2534.0000000        2534.9780273      -0.97802734375    
 1173-66-5       2554.0000000        2571.6582031       -17.658203125    
 1173-71-365     2541.0000000        2565.8093262       -24.809326172    
 1044-16-362     2571.0000000        2585.8222656       -14.822265625    
 1044-32-69      2561.0000000        2578.5190430       -17.519042969    
 1044-37-95      2559.0000000        2575.2321777       -16.232177734    
 1044-42-356     2552.0000000        2570.2150879       -18.215087891    
 1044-48-344     2546.0000000        2564.4431152       -18.443115234    
 1044-56-20      2550.0000000        2556.1401367       -6.1401367188    
 1044-61-60      2536.0000000        2541.9440918       -5.9440917969    
 1044-66-25      2521.0000000        2522.2229004       -1.2229003906    
 1050-71-40      2513.0000000        2507.1059570        5.8940429688    
 1045-31-349     2555.0000000        2552.9309082        2.0690917969    
 1045-37-26      2550.0000000        2547.4194336        2.5805664062    
 1045-42-354     2545.0000000        2539.5358887        5.4641113281    
 1045-48-344     2543.0000000        2532.6840820        10.315917969    
 1045-56-17      2550.0000000        2522.5048828        27.495117188    
 1045-60-320     2531.0000000        2509.7978516        21.202148438    
 1045-65-298     2514.0000000        2490.9118652        23.088134766    
 1045-71-365     2501.0000000        2473.4179688        27.582031250    
 1046-31-349     2549.0000000        2552.9309082       -3.9309082031    
 1046-42-354     2535.0000000        2539.5358887       -4.5358886719    
 1046-48-344     2536.0000000        2532.6840820        3.3159179688    
 1046-56-17      2529.0000000        2522.5048828        6.4951171875    
 1046-60-320     2529.0000000        2509.7978516        19.202148438    
 1046-65-298     2512.0000000        2490.9118652        21.088134766    
 1046-71-365     2500.0000000        2473.4179688        26.582031250    
 1047-31-349     2492.0000000        2552.9309082       -60.930908203    
 1047-42-354     2469.0000000        2539.5358887       -70.535888672    
 1047-48-344     2465.0000000        2532.6840820       -67.684082031    
 1047-56-17      2456.0000000        2522.5048828       -66.504882812    
 1047-60-320     2443.0000000        2509.7978516       -66.797851562    
 1047-65-298     2463.0000000        2490.9118652       -27.911865234    
 1047-71-365     2462.0000000        2473.4179688       -11.417968750    
 1059-32-70      2541.0000000        2537.6193848        3.3806152344    
 1059-56-19      2525.0000000        2504.1726074        20.827392578    
 1059-61-54      2518.0000000        2491.6801758        26.319824219    
 1059-66-32      2504.0000000        2474.5341797        29.465820312    
 1070-36-283     2528.0000000        2500.8713379        27.128662109    
 1017-17-78      2551.0000000        2565.6828613       -14.682861328    
 1017-31-349     2541.0000000        2554.6445312       -13.644531250    
 1017-37-26      2537.0000000        2548.8308105       -11.830810547    
 1017-42-355     2531.0000000        2541.0368652       -10.036865234    
 1004-71-365     2502.0000000        2464.6184082        37.381591797    
 988-2-60        2547.0000000        2557.3854980       -10.385498047    
 979-42-355      2538.0000000        2525.2768555        12.723144531    
 979-48-334      2535.0000000        2517.0312500        17.968750000    
 979-56-18       2530.0000000        2506.3527832        23.647216797    
 979-61-53       2526.0000000        2493.9040527        32.095947266    
 961-7-85        2553.0000000        2559.0837402       -6.0837402344    
 961-12-60       2552.0000000        2558.1062012       -6.1062011719    
 961-16-362      2552.0000000        2556.2658691       -4.2658691406    
 955-61-53       2538.0000000        2500.8513184        37.148681641    
 955-66-31       2528.0000000        2484.7387695        43.261230469    
 925-71-365      2505.0000000        2477.1530762        27.846923828    
 940-71-365      2503.0000000        2476.9602051        26.039794922    
 945-71-365      2504.0000000        2477.2670898        26.732910156    
 959-66-49       2516.0000000        2503.2067871        12.793212891    
 959-71-365      2504.0000000        2489.2158203        14.784179688    
 922-61-42       2543.0000000        2530.7077637        12.292236328    
 922-66-54       2523.0000000        2503.8549805        19.145019531    
 922-71-365      2511.0000000        2489.1831055        21.816894531    
 978-66-59       2532.0000000        2538.0017090       -6.0017089844    
 978-71-365      2523.0000000        2524.0090332       -1.0090332031    
 977-56-17       2602.0000000        2621.4309082       -19.430908203    
 977-61-53       2594.0000000        2613.6159668       -19.615966797    
 977-66-32       2580.0000000        2598.9360352       -18.936035156    
 973-32-70       2598.0000000        2634.8337402       -36.833740234    
 973-38-60       2590.0000000        2635.0085449       -45.008544922    
 973-56-17       2607.0000000        2624.6755371       -17.675537109    
 973-61-53       2599.0000000        2617.3225098       -18.322509766    
 954-42-354      2599.0000000        2632.5949707       -33.594970703    
 954-48-335      2608.0000000        2627.1789551       -19.178955078    
 870-12-60       2625.0000000        2658.4965820       -33.496582031    
 870-17-78       2621.0000000        2657.6938477       -36.693847656    
 870-22-89       2618.0000000        2657.0571289       -39.057128906    
 870-32-70       2613.0000000        2658.0900879       -45.090087891    
 870-37-1        2612.0000000        2657.3054199       -45.305419922    
 870-42-354      2609.0000000        2654.7187500       -45.718750000    
 869-7-171       2627.0000000        2650.9777832       -23.977783203    
 869-42-354      2609.0000000        2648.2124023       -39.212402344    
 869-56-18       2612.0000000        2640.8647461       -28.864746094    
 869-60-320      2607.0000000        2635.6879883       -28.687988281    
 869-65-299      2594.0000000        2624.7019043       -30.701904297    
 869-71-365      2580.0000000        2613.4863281       -33.486328125    
 915-66-53       2565.0000000        2562.3696289        2.6303710938    
 915-71-365      2556.0000000        2549.2954102        6.7045898438    
 912-66-41       2539.0000000        2530.9208984        8.0791015625    
 912-71-365      2518.0000000        2519.2695312       -1.2695312500    
 875-2-86        2589.0000000        2611.2202148       -22.220214844    
 879-61-53       2579.0000000        2563.7834473        15.216552734    
 879-66-46       2541.0000000        2533.0781250        7.9218750000    
 879-71-365      2540.0000000        2521.2001953        18.799804688    
 881-2-87        2569.0000000        2600.1926270       -31.192626953    
 891-48-334      2541.0000000        2550.9599609       -9.9599609375    
 891-56-18       2538.0000000        2540.4289551       -2.4289550781    
 891-61-62       2530.0000000        2527.0678711        2.9321289062    
 891-66-32       2519.0000000        2510.0126953        8.9873046875    
 891-71-64       2506.0000000        2493.1887207        12.811279297    
 876-42-355      2552.0000000        2569.5244141       -17.524414062    
 876-48-334      2539.0000000        2561.3249512       -22.324951172    
 876-56-19       2544.0000000        2551.4645996       -7.4645996094    
 876-61-62       2538.0000000        2538.0454102      -4.54101562500E-02
 876-66-32       2526.0000000        2519.4287109        6.5712890625    
 866-66-32       2529.0000000        2521.8713379        7.1286621094    
 866-71-64       2515.0000000        2506.6755371        8.3244628906    
 873-33-328      2565.0000000        2579.1369629       -14.136962891    
 918-42-355      2544.0000000        2553.9582520       -9.9582519531    
 906-37-28       2539.0000000        2562.3720703       -23.372070312    
 923-42-355      2541.0000000        2544.0424805       -3.0424804688    
 923-48-334      2538.0000000        2535.5771484        2.4228515625    
 923-56-18       2533.0000000        2525.1037598        7.8962402344    
 849-42-356      2552.0000000        2558.8054199       -6.8054199219    
 849-56-18       2543.0000000        2538.8386230        4.1613769531    
 3417-32-69      2618.0000000        2656.9702148       -38.970214844    
 3417-35-23      2607.0000000        2656.7312012       -49.731201172    
 3417-42-354     2615.0000000        2653.7902832       -38.790283203    
 3417-48-335     2618.0000000        2650.2058105       -32.205810547    
 3417-56-17      2606.0000000        2644.9326172       -38.932617188    
 3417-61-53      2601.0000000        2639.1694336       -38.169433594    
 1921-16-362     2735.0000000        2757.2312012       -22.231201172    
 1229-36-319     2700.0000000        2727.1569824       -27.156982422    
 1202-42-362     2739.0000000        2769.9155273       -30.915527344    
 1202-48-336     2748.0000000        2767.0637207       -19.063720703    
 1164-2-93       2771.0000000        2787.1813965       -16.181396484    
 1164-16-300     2748.0000000        2783.5820312       -35.582031250    
 1164-27-12      2758.0000000        2796.4689941       -38.468994141    
 1164-48-336     2788.0000000        2804.7526855       -16.752685547    
 1164-56-17      2792.0000000        2840.1259766       -48.125976562    
 1164-61-60      2780.0000000        2834.4084473       -54.408447266    
 1125-71-356     2768.0000000        2829.4951172       -61.495117188    
 1123-71-53      2768.0000000        2827.2375488       -59.237548828    
 1543-2-90       2922.0000000        2821.9824219        100.01757812    
 1543-56-19      2860.0000000        2887.1862793       -27.186279297    
 1543-66-26      2873.0000000        2862.4902344        10.509765625    
 1084-48-338     2852.0000000        2842.1823730        9.8176269531    
 1067-71-63      2781.0000000        2825.4768066       -44.476806641    
 1066-71-63      2777.0000000        2827.1225586       -50.122558594    
 1544-2-88       2878.0000000        2811.9370117        66.062988281    
 1544-12-324     2840.0000000        2809.7617188        30.238281250    
 1593-61-60      2797.0000000        2834.7927246       -37.792724609    
 1593-66-26      2774.0000000        2810.9355469       -36.935546875    
 1069-71-365     2691.0000000        2760.7497559       -69.749755859    
 1052-56-17      2728.0000000        2786.2822266       -58.282226562    
 1052-66-26      2705.0000000        2779.7597656       -74.759765625    
 989-66-20       2704.0000000        2760.1513672       -56.151367188    
 966-22-60       2729.0000000        2728.8698730       0.13012695312    
 987-12-324      2803.0000000        2811.9548340       -8.9548339844    
 987-22-33       2814.0000000        2816.4916992       -2.4916992188    
 987-27-12       2810.0000000        2821.8454590       -11.845458984    
 987-66-20       2825.0000000        2850.5205078       -25.520507812    
 858-71-63       2702.0000000        2776.0598145       -74.059814453    
 890-42-362      2717.0000000        2773.3886719       -56.388671875    
 890-48-338      2730.0000000        2773.6772461       -43.677246094    
 890-56-19       2730.0000000        2773.9343262       -43.934326172    
 890-61-60       2726.0000000        2777.3393555       -51.339355469    
 890-66-20       2715.0000000        2773.8547363       -58.854736328    
 908-71-365      2689.0000000        2751.2822266       -62.282226562    
 667-17-5        2504.0000000        2519.9201660       -15.920166016    
 667-22-1        2502.0000000        2515.6638184       -13.663818359    
 667-27-14       2494.0000000        2512.1105957       -18.110595703    
 667-31-350      2499.0000000        2510.0463867       -11.046386719    
 667-37-340      2494.0000000        2505.8315430       -11.831542969    
 667-42-351      2499.0000000        2501.4694824       -2.4694824219    
 667-48-348      2498.0000000        2502.3969727       -4.3969726562    
 652-27-14       2504.0000000        2517.1166992       -13.116699219    
 652-56-17       2507.0000000        2507.2424316      -0.24243164062    
 652-66-20       2507.0000000        2507.5549316      -0.55493164062    
 614-27-14       2526.0000000        2550.5898438       -24.589843750    
 613-56-17       2525.0000000        2541.3591309       -16.359130859    
 641-1-260       2528.0000000        2555.4228516       -27.422851562    
 641-26-1        2539.0000000        2550.6933594       -11.693359375    
 641-56-18       2538.0000000        2538.2575684      -0.25756835938    
 641-66-31       2538.0000000        2539.3469238       -1.3469238281    
 793-6-289       2382.0000000        2391.5649414       -9.5649414062    
 793-48-348      2377.0000000        2368.8071289        8.1928710938    
 793-61-25       2381.0000000        2367.8884277        13.111572266    
 793-65-357      2380.0000000        2365.3828125        14.617187500    
 793-71-365      2382.0000000        2365.4230957        16.576904297    
 762-56-18       2383.0000000        2370.9108887        12.089111328    
 762-61-61       2384.0000000        2370.3342285        13.665771484    
 762-66-34       2383.0000000        2369.0288086        13.971191406    
 758-48-348      2397.0000000        2394.9287109        2.0712890625    
 758-55-353      2400.0000000        2394.6267090        5.3732910156    
 758-61-25       2401.0000000        2395.4851074        5.5148925781    
 758-65-362      2400.0000000        2393.2866211        6.7133789062    
 758-71-365      2401.0000000        2392.7541504        8.2458496094    
 766-10-104      2408.0000000        2438.6660156       -30.666015625    
 773-36-156      2387.0000000        2415.5385742       -28.538574219    
 722-8-276       2447.0000000        2462.6840820       -15.684082031    
 722-12-360      2448.0000000        2461.1037598       -13.103759766    
 722-22-3        2447.0000000        2454.6992188       -7.6992187500    
 741-65-362      2421.0000000        2419.2934570        1.7065429688    
 741-71-365      2422.0000000        2418.5263672        3.4736328125    
 738-65-362      2422.0000000        2423.2656250       -1.2656250000    
 738-71-365      2422.0000000        2422.5568848      -0.55688476562    
 743-65-362      2421.0000000        2416.1818848        4.8181152344    
 743-71-365      2421.0000000        2415.3403320        5.6596679688    
 740-65-362      2421.0000000        2419.1008301        1.8991699219    
 740-71-365      2421.0000000        2418.2470703        2.7529296875    
 737-22-3        2416.0000000        2428.8923340       -12.892333984    
 737-48-348      2416.0000000        2417.8544922       -1.8544921875    
 737-61-25       2418.0000000        2420.1330566       -2.1330566406    
 737-65-362      2418.0000000        2417.9826660       1.73339843750E-02
 737-71-365      2418.0000000        2416.9406738        1.0593261719    
 723-12-180      2416.0000000        2398.0524902        17.947509766    
 723-17-9        2414.0000000        2396.3005371        17.699462891    
 723-22-1        2414.0000000        2393.2917480        20.708251953    
 723-32-85       2411.0000000        2388.4326172        22.567382812    
 748-61-61       2238.0000000        2251.9055176       -13.905517578    
 748-66-33       2227.0000000        2248.7192383       -21.719238281    
 714-56-19       2237.0000000        2290.0803223       -53.080322266    
 714-61-61       2235.0000000        2286.9487305       -51.948730469    
 715-56-17       2450.0000000        2462.8205566       -12.820556641    
 715-61-62       2457.0000000        2464.8305664       -7.8305664062    
 715-66-35       2456.0000000        2463.0036621       -7.0036621094    
 713-56-17       2455.0000000        2465.0263672       -10.026367188    
 713-66-35       2454.0000000        2465.2263184       -11.226318359    
 702-65-362      2463.0000000        2457.4628906        5.5371093750    
 702-71-365      2463.0000000        2456.3015137        6.6984863281    
 700-36-164      2460.0000000        2471.5854492       -11.585449219    
 700-55-353      2466.0000000        2467.0004883       -1.0004882812    
 700-61-25       2467.0000000        2470.0393066       -3.0393066406    
 700-65-362      2466.0000000        2467.2231445       -1.2231445312    
 700-71-365      2467.0000000        2466.2497559       0.75024414062    
 671-27-14       2489.0000000        2497.9104004       -8.9104003906    
 671-55-353      2494.0000000        2489.6333008        4.3666992188    
 671-61-25       2495.0000000        2491.8090820        3.1909179688    
 656-12-178      2494.0000000        2517.6752930       -23.675292969    
 656-56-17       2499.0000000        2502.0754395       -3.0754394531    
 656-66-20       2499.0000000        2500.9296875       -1.9296875000    
 656-71-365      2499.0000000        2500.0261230       -1.0261230469    
 655-26-362      2408.0000000        2409.4245605       -1.4245605469    
 655-32-85       2406.0000000        2407.6347656       -1.6347656250    
 655-35-53       2401.0000000        2406.4760742       -5.4760742188    
 655-56-18       2407.0000000        2398.2111816        8.7888183594    
 689-66-33       2257.0000000        2328.0400391       -71.040039062    
 688-71-365      2245.0000000        2330.5961914       -85.596191406    
 682-56-18       2351.0000000        2355.5708008       -4.5708007812    
 636-56-18       2491.0000000        2477.0534668        13.946533203    
 636-61-62       2491.0000000        2477.2097168        13.790283203    
 636-66-20       2492.0000000        2476.7578125        15.242187500    
 648-71-365      2482.0000000        2474.4030762        7.5969238281    
 601-48-348      2513.0000000        2498.2434082        14.756591797    
 601-55-353      2504.0000000        2498.1721191        5.8278808594    
 601-61-34       2505.0000000        2498.2348633        6.7651367188    
 601-65-362      2505.0000000        2498.0700684        6.9299316406    
 601-71-365      2505.0000000        2496.5700684        8.4299316406    
 632-56-17       2501.0000000        2526.1958008       -25.195800781    
 632-66-20       2500.0000000        2526.6811523       -26.681152344    
 602-22-1        2498.0000000        2530.0236816       -32.023681641    
 579-56-18       2514.0000000        2532.5834961       -18.583496094    
 598-42-351      2491.0000000        2473.9497070        17.050292969    
 598-48-348      2490.0000000        2471.8913574        18.108642578    
 598-56-18       2494.0000000        2470.9841309        23.015869141    
 598-60-323      2494.0000000        2470.5598145        23.440185547    
 598-65-300      2493.0000000        2469.9072266        23.092773438    
 598-71-365      2495.0000000        2468.4111328        26.588867188    
 739-37-15       2205.0000000        2232.3720703       -27.372070312    
 739-48-341      2200.0000000        2220.4733887       -20.473388672    
 739-55-353      2197.0000000        2212.3205566       -15.320556641    
 739-61-34       2193.0000000        2209.3063965       -16.306396484    
 739-65-362      2190.0000000        2204.5273438       -14.527343750    
 739-71-365      2186.0000000        2198.6745605       -12.674560547    
 720-12-152      2215.0000000        2256.5097656       -41.509765625    
 720-17-9        2226.0000000        2256.2531738       -30.253173828    
 720-21-364      2222.0000000        2255.4538574       -33.453857422    
 720-66-34       2202.0000000        2222.4736328       -20.473632812    
 747-48-341      2159.0000000        2195.0122070       -36.012207031    
 747-55-346      2172.0000000        2187.9721680       -15.972167969    
 747-61-34       2161.0000000        2182.4689941       -21.468994141    
 747-65-362      2158.0000000        2177.0407715       -19.040771484    
 747-71-365      2157.0000000        2170.5578613       -13.557861328    
 717-27-13       2532.0000000        2532.3881836      -0.38818359375    
 644-42-343      2450.0000000        2485.9509277       -35.950927734    
 625-42-343      2439.0000000        2476.9296875       -37.929687500    
 620-42-343      2444.0000000        2477.2836914       -33.283691406    
 634-35-29       2574.0000000        2619.1105957       -45.110595703    
 634-42-322      2559.0000000        2603.4650879       -44.465087891    
 554-42-350      2595.0000000        2612.6093750       -17.609375000    
 561-42-349      2661.0000000        2652.7084961        8.2915039062    
 535-42-350      2638.0000000        2640.3771973       -2.3771972656    
 577-22-34       2586.0000000        2589.2617188       -3.2617187500    
 577-27-59       2549.0000000        2537.2492676        11.750732422    
 577-31-339      2500.0000000        2497.6074219        2.3925781250    
 577-37-1        2481.0000000        2491.7954102       -10.795410156    
 577-42-343      2452.0000000        2486.2675781       -34.267578125    
 577-48-343      2460.0000000        2482.8125000       -22.812500000    
 577-56-16       2425.0000000        2439.5383301       -14.538330078    
 577-60-322      2411.0000000        2423.3645020       -12.364501953    
 577-65-302      2452.0000000        2453.0734863       -1.0734863281    
 577-71-365      2473.0000000        2484.4079590       -11.407958984    
 581-1-365       2613.0000000        2619.5964355       -6.5964355469    
 582-42-343      2423.0000000        2456.6181641       -33.618164062    
 582-56-16       2421.0000000        2418.9125977        2.0874023438    
 586-27-56       2560.0000000        2528.8271484        31.172851562    
 586-37-316      2455.0000000        2456.7192383       -1.7192382812    
 586-42-343      2436.0000000        2448.4191895       -12.419189453    
 586-56-16       2414.0000000        2401.5195312        12.480468750    
 586-61-55       2392.0000000        2384.9106445        7.0893554688    
 586-66-46       2450.0000000        2456.0200195       -6.0200195312    
 553-22-39       2593.0000000        2584.4331055        8.5668945312    
 553-26-299      2554.0000000        2547.0209961        6.9790039062    
 553-31-348      2505.0000000        2503.8173828        1.1826171875    
 553-36-21       2455.0000000        2474.2531738       -19.253173828    
 584-22-44       2584.0000000        2575.9812012        8.0187988281    
 584-27-56       2547.0000000        2533.5400391        13.459960938    
 584-31-339      2495.0000000        2506.7106934       -11.710693359    
 584-37-1        2474.0000000        2469.2590332        4.7409667969    
 584-42-343      2433.0000000        2452.4216309       -19.421630859    
 584-56-16       2410.0000000        2413.7504883       -3.7504882812    
 584-61-55       2391.0000000        2397.3110352       -6.3110351562    
 584-66-46       2446.0000000        2465.0778809       -19.077880859    
 585-22-44       2583.0000000        2583.1682129      -0.16821289062    
 585-27-56       2547.0000000        2534.1262207        12.873779297    
 585-31-339      2498.0000000        2498.7897949      -0.78979492188    
 585-37-1        2467.0000000        2478.6320801       -11.632080078    
 585-42-343      2437.0000000        2468.9204102       -31.920410156    
 585-56-16       2417.0000000        2413.9208984        3.0791015625    
 585-61-55       2400.0000000        2398.0625000        1.9375000000    
 585-66-46       2434.0000000        2453.7668457       -19.766845703    
 557-38-1        2450.0000000        2445.6967773        4.3032226562    
 557-42-343      2435.0000000        2447.6079102       -12.607910156    
 557-66-46       2446.0000000        2454.5556641       -8.5556640625    
 548-1-365       2625.0000000        2628.0412598       -3.0412597656    
 575-17-55       2606.0000000        2589.5214844        16.478515625    
 575-22-44       2585.0000000        2573.0185547        11.981445312    
 575-26-299      2563.0000000        2545.8344727        17.165527344    
 563-17-55       2608.0000000        2594.3151855        13.684814453    
 563-22-44       2582.0000000        2577.4074707        4.5925292969    
 563-66-46       2450.0000000        2485.1892090       -35.189208984    
 556-26-299      2555.0000000        2550.7155762        4.2844238281    
 556-31-335      2494.0000000        2510.8964844       -16.896484375    
 556-36-317      2441.0000000        2455.5139160       -14.513916016    
 556-56-10       2417.0000000        2450.3847656       -33.384765625    
 556-61-56       2388.0000000        2432.3127441       -44.312744141    
 556-66-34       2437.0000000        2480.1596680       -43.159667969    
 558-26-299      2562.0000000        2553.8923340        8.1076660156    
 558-31-317      2494.0000000        2516.4316406       -22.431640625    
 558-38-319      2491.0000000        2478.6928711        12.307128906    
 572-1-365       2603.0000000        2621.5039062       -18.503906250    
 543-1-365       2605.0000000        2628.7368164       -23.736816406    
 529-48-336      2480.0000000        2500.8354492       -20.835449219    
 529-56-10       2437.0000000        2477.6523438       -40.652343750    
 529-61-56       2410.0000000        2459.7534180       -49.753417969    
 529-66-34       2445.0000000        2481.3007812       -36.300781250    
 798-1-365       2539.0000000        2543.1374512       -4.1374511719    
 794-1-77        2534.0000000        2542.5485840       -8.5485839844    
 772-3-59        2562.0000000        2551.1657715        10.834228516    
 792-1-365       2540.0000000        2540.8959961      -0.89599609375    
 790-1-274       2535.0000000        2536.1940918       -1.1940917969    
 790-6-286       2531.0000000        2534.7595215       -3.7595214844    
 790-11-258      2529.0000000        2531.4926758       -2.4926757812    
 790-17-4        2524.0000000        2528.0317383       -4.0317382812    
 790-22-34       2517.0000000        2516.5791016       0.42089843750    
 790-27-53       2506.0000000        2504.4370117        1.5629882812    
 790-31-335      2490.0000000        2492.6215820       -2.6215820312    
 790-37-32       2471.0000000        2477.8688965       -6.8688964844    
 790-42-351      2453.0000000        2471.6193848       -18.619384766    
 790-48-337      2445.0000000        2471.2243652       -26.224365234    
 790-61-54       2443.0000000        2441.1950684        1.8049316406    
 783-1-274       2535.0000000        2545.3623047       -10.362304688    
 783-6-288       2532.0000000        2543.4709473       -11.470947266    
 783-11-258      2528.0000000        2540.7250977       -12.725097656    
 783-17-4        2528.0000000        2537.4436035       -9.4436035156    
 783-17-47       2528.0000000        2537.3669434       -9.3669433594    
 783-22-34       2521.0000000        2525.6071777       -4.6071777344    
 783-26-280      2507.0000000        2513.3652344       -6.3652343750    
 783-31-335      2498.0000000        2500.2829590       -2.2829589844    
 783-42-351      2458.0000000        2479.9082031       -21.908203125    
 783-61-54       2445.0000000        2449.0800781       -4.0800781250    
 799-1-365       2542.0000000        2536.5151367        5.4848632812    
 774-65-357      2494.0000000        2433.2148438        60.785156250    
 774-71-362      2519.0000000        2441.2009277        77.799072266    
 751-1-365       2570.0000000        2565.6381836        4.3618164062    
 746-22-38       2536.0000000        2535.4902344       0.50976562500    
 746-26-280      2500.0000000        2514.2341309       -14.234130859    
 746-32-41       2498.0000000        2501.3916016       -3.3916015625    
 746-48-362      2477.0000000        2475.6262207        1.3737792969    
 746-56-9        2486.0000000        2466.0476074        19.952392578    
 746-61-47       2486.0000000        2447.7583008        38.241699219    
 746-65-357      2520.0000000        2446.4216309        73.578369141    
 746-71-362      2538.0000000        2457.5864258        80.413574219    
 745-1-55        2556.0000000        2566.9768066       -10.976806641    
 754-48-342      2454.0000000        2474.6650391       -20.665039062    
 754-56-18       2468.0000000        2464.3164062        3.6835937500    
 754-61-53       2463.0000000        2445.6325684        17.367431641    
 754-66-32       2491.0000000        2443.6977539        47.302246094    
 721-12-313      2560.0000000        2567.1328125       -7.1328125000    
 721-17-52       2559.0000000        2563.2431641       -4.2431640625    
 721-22-38       2545.0000000        2546.5537109       -1.5537109375    
 721-26-287      2529.0000000        2524.4428711        4.5571289062    
 721-31-335      2519.0000000        2514.3222656        4.6777343750    
 721-36-318      2501.0000000        2497.9765625        3.0234375000    
 721-42-350      2487.0000000        2492.9189453       -5.9189453125    
 721-48-343      2496.0000000        2489.5607910        6.4392089844    
 721-56-19       2501.0000000        2477.3698730        23.630126953    
 721-61-55       2517.0000000        2461.2060547        55.793945312    
 721-66-46       2551.0000000        2469.9003906        81.099609375    
 729-43-4        2481.0000000        2491.8317871       -10.831787109    
 729-48-362      2483.0000000        2486.4902344       -3.4902343750    
 729-56-9        2494.0000000        2476.0339355        17.966064453    
 729-66-1        2530.0000000        2466.1794434        63.820556641    
 729-71-362      2550.0000000        2480.6389160        69.361083984    
 706-17-52       2567.0000000        2570.7993164       -3.7993164062    
 706-22-37       2551.0000000        2551.4020996      -0.40209960938    
 706-27-62       2534.0000000        2531.4934082        2.5065917969    
 706-31-335      2512.0000000        2518.2529297       -6.2529296875    
 706-43-4        2494.0000000        2496.5202637       -2.5202636719    
 706-48-362      2496.0000000        2490.8190918        5.1809082031    
 706-56-9        2500.0000000        2481.3105469        18.689453125    
 706-61-47       2502.0000000        2468.0473633        33.952636719    
 706-65-357      2537.0000000        2480.3854980        56.614501953    
 706-71-362      2557.0000000        2496.6040039        60.395996094    
 694-17-52       2576.0000000        2577.3598633       -1.3598632812    
 694-22-38       2562.0000000        2557.9172363        4.0827636719    
 694-26-285      2534.0000000        2542.3583984       -8.3583984375    
 694-31-344      2513.0000000        2525.0834961       -12.083496094    
 694-36-354      2476.0000000        2508.3408203       -32.340820312    
 694-43-4        2493.0000000        2501.7089844       -8.7089843750    
 694-48-362      2498.0000000        2495.3547363        2.6452636719    
 694-56-9        2505.0000000        2485.7207031        19.279296875    
 694-61-47       2504.0000000        2474.4147949        29.585205078    
 694-65-357      2533.0000000        2482.6870117        50.312988281    
 694-71-362      2554.0000000        2498.6267090        55.373291016    
 716-1-365       2575.0000000        2582.2421875       -7.2421875000    
 719-12-121      2562.0000000        2569.5148926       -7.5148925781    
 708-8-302       2566.0000000        2576.5605469       -10.560546875    
 708-12-64       2563.0000000        2575.4328613       -12.432861328    
 708-17-3        2561.0000000        2569.8581543       -8.8581542969    
 708-22-38       2547.0000000        2551.4968262       -4.4968261719    
 708-26-287      2532.0000000        2530.6289062        1.3710937500    
 708-31-335      2523.0000000        2519.5417480        3.4582519531    
 708-42-350      2497.0000000        2496.2919922       0.70800781250    
 708-48-343      2502.0000000        2494.2226562        7.7773437500    
 685-1-365       2591.0000000        2595.7607422       -4.7607421875    
 674-22-38       2556.0000000        2559.7238770       -3.7238769531    
 674-31-344      2533.0000000        2525.8273926        7.1726074219    
 674-42-350      2506.0000000        2498.0256348        7.9743652344    
 674-48-343      2513.0000000        2499.1921387        13.807861328    
 674-56-19       2518.0000000        2484.2402344        33.759765625    
 674-61-60       2556.0000000        2476.2648926        79.735107422    
 674-66-48       2580.0000000        2507.5712891        72.428710938    
 676-27-10       2543.0000000        2542.6042480       0.39575195312    
 687-17-3        2567.0000000        2575.6223145       -8.6223144531    
 687-22-38       2551.0000000        2556.8012695       -5.8012695312    
 687-27-11       2542.0000000        2538.3139648        3.6860351562    
 687-42-350      2486.0000000        2498.0646973       -12.064697266    
 687-48-343      2502.0000000        2499.0249023        2.9750976562    
 687-56-19       2504.0000000        2483.1987305        20.801269531    
 687-61-55       2542.0000000        2471.8244629        70.175537109    
 687-66-46       2569.0000000        2499.7639160        69.236083984    
 686-56-19       2495.0000000        2479.8659668        15.134033203    
 686-66-46       2558.0000000        2493.2995605        64.700439453    
 677-17-53       2576.0000000        2576.9438477      -0.94384765625    
 677-22-38       2559.0000000        2559.1726074      -0.17260742188    
 677-26-299      2550.0000000        2541.9086914        8.0913085938    
 677-31-337      2534.0000000        2525.9003906        8.0996093750    
 677-37-336      2522.0000000        2503.2399902        18.760009766    
 677-42-350      2496.0000000        2498.4060059       -2.4060058594    
 677-48-343      2506.0000000        2500.9824219        5.0175781250    
 677-56-19       2507.0000000        2483.3981934        23.601806641    
 677-61-55       2540.0000000        2473.9965820        66.003417969    
 677-66-46       2576.0000000        2507.7102051        68.289794922    
 675-5-102       2577.0000000        2589.9650879       -12.965087891    
 675-11-305      2574.0000000        2588.1496582       -14.149658203    
 675-27-11       2549.0000000        2542.2385254        6.7614746094    
 665-17-53       2574.0000000        2579.2045898       -5.2045898438    
 665-22-38       2554.0000000        2561.2517090       -7.2517089844    
 665-27-11       2551.0000000        2544.0002441        6.9997558594    
 665-36-357      2509.0000000        2506.0881348        2.9118652344    
 665-42-350      2499.0000000        2497.6816406        1.3183593750    
 665-56-19       2510.0000000        2483.6796875        26.320312500    
 665-61-55       2552.0000000        2484.1013184        67.898681641    
 665-66-46       2586.0000000        2529.8625488        56.137451172    
 657-48-343      2507.0000000        2502.1496582        4.8503417969    
 649-3-294       2582.0000000        2600.4345703       -18.434570312    
 649-6-290       2584.0000000        2590.2761230       -6.2761230469    
 649-11-307      2579.0000000        2593.5527344       -14.552734375    
 649-17-3        2574.0000000        2581.8879395       -7.8879394531    
 649-22-38       2549.0000000        2563.6799316       -14.679931641    
 649-26-287      2552.0000000        2547.2756348        4.7243652344    
 649-31-335      2532.0000000        2527.2514648        4.7485351562    
 649-38-60       2521.0000000        2502.1989746        18.801025391    
 649-42-350      2502.0000000        2496.3569336        5.6430664062    
 649-48-343      2512.0000000        2502.2187500        9.7812500000    
 649-56-19       2516.0000000        2482.9409180        33.059082031    
 649-61-55       2570.0000000        2485.0878906        84.912109375    
 651-3-294       2582.0000000        2600.8889160       -18.888916016    
 651-6-290       2584.0000000        2591.3745117       -7.3745117188    
 651-11-307      2579.0000000        2593.4296875       -14.429687500    
 651-17-52       2575.0000000        2582.0412598       -7.0412597656    
 651-27-11       2555.0000000        2547.3115234        7.6884765625    
 651-42-350      2502.0000000        2497.3593750        4.6406250000    
 651-48-343      2513.0000000        2501.6105957        11.389404297    
 651-56-19       2517.0000000        2484.3681641        32.631835938    
 651-61-60       2571.0000000        2482.1499023        88.850097656    
 651-66-46       2592.0000000        2524.4536133        67.546386719    
 679-17-52       2569.0000000        2579.4890137       -10.489013672    
 679-22-37       2550.0000000        2555.9333496       -5.9333496094    
 679-26-336      2534.0000000        2541.9382324       -7.9382324219    
 679-48-362      2499.0000000        2495.9477539        3.0522460938    
 679-56-9        2503.0000000        2485.7556152        17.244384766    
 679-61-47       2506.0000000        2474.6264648        31.373535156    
 679-65-357      2539.0000000        2490.7695312        48.230468750    
 679-71-362      2559.0000000        2508.9831543        50.016845703    
 680-17-52       2574.0000000        2581.3442383       -7.3442382812    
 680-22-82       2554.0000000        2557.5024414       -3.5024414062    
 680-27-62       2543.0000000        2543.7866211      -0.78662109375    
 680-31-335      2516.0000000        2524.8664551       -8.8664550781    
 680-39-60       2491.0000000        2505.8212891       -14.821289062    
 680-43-4        2504.0000000        2501.2082520        2.7917480469    
 680-48-362      2506.0000000        2496.0312500        9.9687500000    
 680-56-9        2508.0000000        2486.9370117        21.062988281    
 680-61-47       2508.0000000        2476.0593262        31.940673828    
 680-65-357      2540.0000000        2487.5410156        52.458984375    
 680-71-362      2560.0000000        2505.3330078        54.666992188    
 684-17-52       2569.0000000        2576.9584961       -7.9584960938    
 684-22-37       2552.0000000        2556.6943359       -4.6943359375    
 684-26-349      2529.0000000        2539.8420410       -10.842041016    
 684-31-335      2515.0000000        2523.7668457       -8.7668457031    
 684-48-362      2497.0000000        2496.2346191       0.76538085938    
 684-56-9        2504.0000000        2484.1975098        19.802490234    
 684-66-1        2542.0000000        2493.0371094        48.962890625    
 684-71-362      2561.0000000        2510.8291016        50.170898438    
 664-1-365       2593.0000000        2602.7717285       -9.7717285156    
 654-12-67       2578.0000000        2592.9226074       -14.922607422    
 654-17-52       2574.0000000        2583.5119629       -9.5119628906    
 654-22-37       2548.0000000        2564.3928223       -16.392822266    
 654-26-285      2532.0000000        2549.7092285       -17.709228516    
 654-31-335      2524.0000000        2528.6677246       -4.6677246094    
 654-38-32       2520.0000000        2505.4763184        14.523681641    
 654-42-349      2476.0000000        2499.2478027       -23.247802734    
 654-48-343      2493.0000000        2500.3513184       -7.3513183594    
 654-56-19       2506.0000000        2486.2453613        19.754638672    
 654-61-60       2512.0000000        2477.3437500        34.656250000    
 654-66-49       2540.0000000        2505.5129395        34.487060547    
 658-32-41       2519.0000000        2530.1660156       -11.166015625    
 658-36-357      2482.0000000        2514.6787109       -32.678710938    
 658-43-4        2484.0000000        2504.3864746       -20.386474609    
 658-48-362      2493.0000000        2497.0866699       -4.0866699219    
 658-56-9        2515.0000000        2487.7160645        27.283935547    
 658-61-47       2509.0000000        2477.1467285        31.853271484    
 658-65-357      2542.0000000        2489.5002441        52.499755859    
 658-71-362      2564.0000000        2509.2177734        54.782226562    
 673-35-360      2507.0000000        2518.6850586       -11.685058594    
 673-56-9        2508.0000000        2488.7145996        19.285400391    
 673-61-47       2504.0000000        2479.0092773        24.990722656    
 673-65-357      2527.0000000        2485.5322266        41.467773438    
 673-70-334      2545.0000000        2500.2424316        44.757568359    
 673-71-362      2550.0000000        2503.9440918        46.055908203    
 653-32-41       2506.0000000        2536.1198730       -30.119873047    
 653-39-32       2513.0000000        2515.7795410       -2.7795410156    
 653-43-4        2493.0000000        2509.6838379       -16.683837891    
 653-48-362      2495.0000000        2497.9565430       -2.9565429688    
 653-56-9        2514.0000000        2490.5285645        23.471435547    
 653-61-47       2500.0000000        2481.4785156        18.521484375    
 653-65-357      2517.0000000        2486.7917480        30.208251953    
 653-71-362      2552.0000000        2505.9367676        46.063232422    
 642-36-352      2607.0000000        2598.1789551        8.8210449219    
 642-43-4        2588.0000000        2578.6291504        9.3708496094    
 642-48-362      2581.0000000        2562.0480957        18.951904297    
 642-56-9        2580.0000000        2553.1523438        26.847656250    
 642-61-47       2572.0000000        2544.4863281        27.513671875    
 642-65-357      2568.0000000        2539.2788086        28.721191406    
 642-71-362      2571.0000000        2538.3603516        32.639648438    
 637-26-295      2608.0000000        2600.9653320        7.0346679688    
 637-31-349      2611.0000000        2590.6123047        20.387695312    
 637-36-352      2607.0000000        2576.8061523        30.193847656    
 637-43-4        2578.0000000        2557.1848145        20.815185547    
 637-48-362      2568.0000000        2540.1376953        27.862304688    
 637-56-9        2569.0000000        2527.1386719        41.861328125    
 637-61-47       2559.0000000        2518.0900879        40.909912109    
 637-65-357      2553.0000000        2515.5187988        37.481201172    
 637-71-362      2566.0000000        2523.2272949        42.772705078    
 624-7-99        2610.0000000        2624.7778320       -14.777832031    
 624-12-103      2609.0000000        2622.2404785       -13.240478516    
 624-17-52       2607.0000000        2619.3515625       -12.351562500    
 624-22-39       2605.0000000        2613.9956055       -8.9956054688    
 624-27-5        2602.0000000        2606.6525879       -4.6525878906    
 624-32-1        2598.0000000        2597.5981445       0.40185546875    
 595-37-32       2599.0000000        2582.8283691        16.171630859    
 595-43-4        2582.0000000        2561.9409180        20.059082031    
 595-48-362      2558.0000000        2546.2011719        11.798828125    
 595-56-9        2570.0000000        2535.1760254        34.823974609    
 595-61-47       2560.0000000        2524.6513672        35.348632812    
 595-65-357      2558.0000000        2522.1921387        35.807861328    
 595-71-362      2564.0000000        2529.7705078        34.229492188    
 604-31-323      2609.0000000        2611.1728516       -2.1728515625    
 604-37-32       2621.0000000        2597.7851562        23.214843750    
 604-43-4        2602.0000000        2579.2590332        22.740966797    
 604-48-362      2594.0000000        2566.0019531        27.998046875    
 604-56-9        2588.0000000        2555.8703613        32.129638672    
 604-61-47       2574.0000000        2546.7016602        27.298339844    
 604-65-357      2571.0000000        2542.1164551        28.883544922    
 604-71-362      2569.0000000        2543.7656250        25.234375000    
 596-36-352      2575.0000000        2559.4077148        15.592285156    
 596-43-4        2524.0000000        2540.8728027       -16.872802734    
 596-48-362      2513.0000000        2524.3081055       -11.308105469    
 596-56-9        2539.0000000        2513.6315918        25.368408203    
 596-61-47       2514.0000000        2504.0759277        9.9240722656    
 596-65-357      2515.0000000        2505.2072754        9.7927246094    
 596-71-362      2556.0000000        2515.5097656        40.490234375    
 609-43-4        2521.0000000        2508.7280273        12.271972656    
 609-56-9        2525.0000000        2494.7534180        30.246582031    
 609-61-47       2518.0000000        2483.2214355        34.778564453    
 609-65-357      2540.0000000        2495.8889160        44.111083984    
 609-71-362      2563.0000000        2513.2441406        49.755859375    
 639-27-10       2551.0000000        2554.9506836       -3.9506835938    
 639-66-49       2549.0000000        2501.3205566        47.679443359    
 626-27-10       2555.0000000        2559.0351562       -4.0351562500    
 626-42-349      2510.0000000        2503.9450684        6.0549316406    
 626-48-343      2512.0000000        2502.5693359        9.4306640625    
 626-56-19       2525.0000000        2490.7829590        34.217041016    
 626-61-60       2519.0000000        2479.8857422        39.114257812    
 626-66-49       2548.0000000        2500.8178711        47.182128906    
 635-17-52       2587.0000000        2591.4099121       -4.4099121094    
 635-22-38       2568.0000000        2574.0024414       -6.0024414062    
 635-26-280      2551.0000000        2560.7236328       -9.7236328125    
 635-42-349      2495.0000000        2506.1242676       -11.124267578    
 635-48-343      2520.0000000        2501.5446777        18.455322266    
 635-56-19       2524.0000000        2491.4919434        32.508056641    
 635-61-60       2522.0000000        2480.6064453        41.393554688    
 635-66-49       2547.0000000        2496.5126953        50.487304688    
 629-11-307      2590.0000000        2598.2854004       -8.2854003906    
 629-16-364      2586.0000000        2587.9716797       -1.9716796875    
 629-21-332      2577.0000000        2569.6303711        7.3696289062    
 629-26-287      2575.0000000        2554.6701660        20.329833984    
 629-31-335      2555.0000000        2531.2998047        23.700195312    
 629-37-32       2545.0000000        2509.1235352        35.876464844    
 629-48-343      2540.0000000        2502.8515625        37.148437500    
 629-56-23       2541.0000000        2486.9299316        54.070068359    
 629-61-60       2574.0000000        2478.2995605        95.700439453    
 629-66-46       2595.0000000        2511.4912109        83.508789062    
 628-11-307      2587.0000000        2599.1835938       -12.183593750    
 628-17-52       2582.0000000        2589.0722656       -7.0722656250    
 628-36-356      2511.0000000        2512.5229492       -1.5229492188    
 628-42-349      2508.0000000        2501.2155762        6.7844238281    
 628-48-343      2521.0000000        2502.4836426        18.516357422    
 628-56-19       2531.0000000        2488.8442383        42.155761719    
 628-61-60       2532.0000000        2478.6420898        53.357910156    
 628-66-46       2549.0000000        2503.8266602        45.173339844    
 630-12-310      2581.0000000        2594.7043457       -13.704345703    
 630-17-3        2586.0000000        2586.7277832      -0.72778320312    
 630-22-38       2558.0000000        2568.1638184       -10.163818359    
 630-27-11       2563.0000000        2551.2751465        11.724853516    
 630-36-357      2528.0000000        2506.1696777        21.830322266    
 630-42-350      2531.0000000        2495.3801270        35.619873047    
 630-48-343      2536.0000000        2503.1997070        32.800292969    
 630-56-19       2538.0000000        2484.2312012        53.768798828    
 630-61-60       2582.0000000        2481.2680664        100.73193359    
 630-66-46       2596.0000000        2525.9560547        70.043945312    
 631-17-3        2582.0000000        2588.3254395       -6.3254394531    
 631-22-32       2552.0000000        2569.3161621       -17.316162109    
 631-26-289      2555.0000000        2551.0866699        3.9133300781    
 631-31-335      2534.0000000        2524.8549805        9.1450195312    
 631-33-335      2527.0000000        2511.0507812        15.949218750    
 631-42-350      2508.0000000        2490.6672363        17.332763672    
 631-48-343      2519.0000000        2503.3000488        15.699951172    
 631-56-19       2524.0000000        2478.6875000        45.312500000    
 631-61-55       2581.0000000        2474.7016602        106.29833984    
 631-66-46       2598.0000000        2528.0834961        69.916503906    
 593-27-11       2564.0000000        2552.8837891        11.116210938    
 593-61-55       2584.0000000        2468.6696777        115.33032227    
 593-66-46       2601.0000000        2519.1752930        81.824707031    
 592-1-365       2597.0000000        2617.3403320       -20.340332031    
 587-7-101       2597.0000000        2603.0307617       -6.0307617188    
 587-11-307      2592.0000000        2603.7866211       -11.786621094    
 587-17-53       2588.0000000        2591.2893066       -3.2893066406    
 587-26-287      2560.0000000        2554.8503418        5.1496582031    
 587-31-335      2541.0000000        2523.6198730        17.380126953    
 587-38-60       2529.0000000        2493.9953613        35.004638672    
 587-42-350      2514.0000000        2484.4960938        29.503906250    
 587-48-343      2528.0000000        2504.0515137        23.948486328    
 587-56-19       2533.0000000        2479.3068848        53.693115234    
 587-61-55       2583.0000000        2456.0283203        126.97167969    
 587-66-46       2601.0000000        2498.6496582        102.35034180    
 591-11-333      2581.0000000        2603.5036621       -22.503662109    
 591-17-53       2583.0000000        2591.9685059       -8.9685058594    
 591-42-350      2513.0000000        2490.2893066        22.710693359    
 597-6-79        2592.0000000        2603.5139160       -11.513916016    
 597-11-307      2591.0000000        2603.1245117       -12.124511719    
 597-17-53       2582.0000000        2591.6579590       -9.6579589844    
 597-26-287      2562.0000000        2557.1918945        4.8081054688    
 597-42-350      2512.0000000        2492.5205078        19.479492188    
 597-48-343      2526.0000000        2505.0563965        20.943603516    
 597-56-19       2531.0000000        2485.2788086        45.721191406    
 597-61-60       2565.0000000        2476.2243652        88.775634766    
 597-66-46       2587.0000000        2517.0925293        69.907470703    
 607-42-349      2527.0000000        2497.9296875        29.070312500    
 607-48-343      2540.0000000        2504.3933105        35.606689453    
 607-56-23       2545.0000000        2488.0273438        56.972656250    
 607-61-60       2554.0000000        2477.7128906        76.287109375    
 607-66-46       2584.0000000        2510.7019043        73.298095703    
 568-48-343      2551.0000000        2507.3034668        43.696533203    
 568-56-10       2554.0000000        2491.6525879        62.347412109    
 568-61-61       2538.0000000        2475.9047852        62.095214844    
 560-1-358       2617.0000000        2622.0642090       -5.0642089844    
 560-6-340       2617.0000000        2609.4340820        7.5659179688    
 560-10-349      2599.0000000        2609.5268555       -10.526855469    
 545-38-6        2479.0000000        2464.4091797        14.590820312    
 545-42-356      2524.0000000        2466.5673828        57.432617188    
 538-1-365       2620.0000000        2627.9880371       -7.9880371094    
 517-7-49        2615.0000000        2615.3842773      -0.38427734375    
 574-56-24       2534.0000000        2495.0534668        38.946533203    
 574-61-61       2529.0000000        2482.1772461        46.822753906    
 574-66-33       2544.0000000        2498.4018555        45.598144531    
 580-1-365       2614.0000000        2620.0888672       -6.0888671875    
 555-8-357       2608.0000000        2613.0173340       -5.0173339844    
 555-12-67       2604.0000000        2611.7268066       -7.7268066406    
 555-27-10       2570.0000000        2570.7729492      -0.77294921875    
 555-31-335      2561.0000000        2546.0815430        14.918457031    
 555-38-60       2550.0000000        2514.4497070        35.550292969    
 555-56-24       2557.0000000        2497.1638184        59.836181641    
 555-61-60       2550.0000000        2482.3837891        67.616210938    
 555-66-33       2562.0000000        2497.4836426        64.516357422    
 547-1-365       2616.0000000        2626.1894531       -10.189453125    
 546-27-10       2574.0000000        2571.3088379        2.6911621094    
 539-56-10       2551.0000000        2498.4421387        52.557861328    
 539-61-60       2539.0000000        2482.8508301        56.149169922    
 539-66-33       2553.0000000        2494.0383301        58.961669922    
 573-48-362      2549.0000000        2510.9135742        38.086425781    
 573-56-9        2550.0000000        2503.1359863        46.864013672    
 573-71-362      2581.0000000        2509.4328613        71.567138672    
 808-48-335      2558.0000000        2542.2648926        15.735107422    
 808-66-33       2546.0000000        2507.1806641        38.819335938    
 808-71-61       2531.0000000        2495.2658691        35.734130859    
 807-26-349      2539.0000000        2526.7702637        12.229736328    
 807-43-4        2524.0000000        2492.0605469        31.939453125    
 807-48-341      2491.0000000        2479.5529785        11.447021484    
 805-56-9        2512.0000000        2467.8527832        44.147216797    
 807-56-9        2486.0000000        2466.9099121        19.090087891    
 807-61-47       2499.0000000        2459.4523926        39.547607422    
 805-65-357      2511.0000000        2453.2226562        57.777343750    
 807-65-357      2507.0000000        2452.1560059        54.843994141    
 805-71-362      2516.0000000        2450.7758789        65.224121094    
 807-71-362      2516.0000000        2449.9868164        66.013183594    
 810-43-4        2471.0000000        2458.8256836        12.174316406    
 810-48-362      2465.0000000        2449.8298340        15.170166016    
 810-61-47       2472.0000000        2420.2153320        51.784667969    
 810-65-357      2509.0000000        2411.7265625        97.273437500    
 810-71-362      2533.0000000        2415.0405273        117.95947266    
 767-48-335      2562.0000000        2541.1684570        20.831542969    
 761-31-335      2494.0000000        2502.6315918       -8.6315917969    
 761-37-320      2488.0000000        2485.2355957        2.7644042969    
 761-42-355      2468.0000000        2481.8884277       -13.888427734    
 761-48-342      2479.0000000        2472.6040039        6.3959960938    
 761-56-18       2481.0000000        2462.3562012        18.643798828    
 761-61-54       2480.0000000        2447.1955566        32.804443359    
 761-66-33       2511.0000000        2443.4880371        67.511962891    
 763-42-355      2484.0000000        2490.2607422       -6.2607421875    
 763-48-342      2488.0000000        2480.6975098        7.3024902344    
 763-56-18       2488.0000000        2469.2119141        18.788085938    
 763-61-56       2488.0000000        2457.4482422        30.551757812    
 763-66-33       2514.0000000        2453.9748535        60.025146484    
 802-56-9        2469.0000000        2444.7883301        24.211669922    
 802-61-47       2460.0000000        2425.6020508        34.397949219    
 802-65-357      2496.0000000        2418.7131348        77.286865234    
 802-71-362      2515.0000000        2423.3464355        91.653564453    
 781-61-54       2482.0000000        2432.6135254        49.386474609    
 781-66-33       2514.0000000        2426.7128906        87.287109375    
 775-56-27       2485.0000000        2452.8422852        32.157714844    
 775-61-54       2484.0000000        2433.1909180        50.809082031    
 775-66-33       2515.0000000        2427.4299316        87.570068359    
 786-66-33       2504.0000000        2426.2084961        77.791503906    
 782-26-336      2502.0000000        2501.8471680       0.15283203125    
 782-31-335      2489.0000000        2491.1696777       -2.1696777344    
 782-43-4        2455.0000000        2470.3630371       -15.363037109    
 782-48-362      2463.0000000        2462.2175293       0.78247070312    
 782-56-9        2471.0000000        2452.0039062        18.996093750    
 782-61-47       2456.0000000        2432.7458496        23.254150391    
 782-65-357      2505.0000000        2426.6520996        78.347900391    
 782-71-362      2523.0000000        2434.9995117        88.000488281    
 755-27-12       2512.0000000        2510.9384766        1.0615234375    
 755-31-348      2492.0000000        2499.6721191       -7.6721191406    
 755-37-26       2467.0000000        2483.4719238       -16.471923828    
 755-42-357      2472.0000000        2479.4545898       -7.4545898438    
 755-48-342      2464.0000000        2473.6423340       -9.6423339844    
 755-56-18       2477.0000000        2463.5861816        13.413818359    
 755-60-320      2475.0000000        2445.0175781        29.982421875    
 755-65-298      2509.0000000        2441.6044922        67.395507812    
 755-71-365      2524.0000000        2452.3457031        71.654296875    
 776-42-354      2621.0000000        2654.7888184       -33.788818359    
 776-48-335      2625.0000000        2651.7360840       -26.736083984    
 776-56-17       2621.0000000        2646.7600098       -25.760009766    
 776-61-53       2616.0000000        2642.2961426       -26.296142578    
 785-32-62       2582.0000000        2606.3474121       -24.347412109    
 785-37-32       2565.0000000        2603.2744141       -38.274414062    
 785-48-334      2578.0000000        2591.2138672       -13.213867188    
 785-56-19       2574.0000000        2582.1262207       -8.1262207031    
 785-66-33       2559.0000000        2559.9323730      -0.93237304688    
 784-32-62       2579.0000000        2607.0241699       -28.024169922    
 784-66-33       2552.0000000        2560.9104004       -8.9104003906    
 777-32-6        2568.0000000        2589.9433594       -21.943359375    
 777-37-32       2563.0000000        2585.3413086       -22.341308594    
 777-42-355      2560.0000000        2578.6452637       -18.645263672    
 777-48-334      2557.0000000        2570.0136719       -13.013671875    
 777-56-18       2552.0000000        2559.2678223       -7.2678222656    
 778-42-355      2583.0000000        2578.6130371        4.3869628906    
 778-48-334      2582.0000000        2569.9389648        12.061035156    
 778-56-18       2572.0000000        2559.1926270        12.807373047    
 778-60-321      2563.0000000        2550.1879883        12.812011719    
 778-65-299      2553.0000000        2537.9191895        15.080810547    
 778-71-365      2542.0000000        2523.2216797        18.778320312    
 779-42-355      2598.0000000        2578.6130371        19.386962891    
 779-48-334      2600.0000000        2569.9389648        30.061035156    
 779-56-18       2594.0000000        2559.1926270        34.807373047    
 779-60-321      2587.0000000        2550.1879883        36.812011719    
 779-65-299      2574.0000000        2537.9191895        36.080810547    
 779-71-365      2564.0000000        2523.2216797        40.778320312    
 801-36-310      2530.0000000        2574.2060547       -44.206054688    
 797-65-356      2527.0000000        2522.2924805        4.7075195312    
 797-71-362      2516.0000000        2509.0246582        6.9753417969    
 768-42-355      2572.0000000        2570.7551270        1.2448730469    
 768-48-335      2565.0000000        2560.3723145        4.6276855469    
 732-36-316      2606.0000000        2596.0246582        9.9753417969    
 765-32-6        2602.0000000        2600.6420898        1.3579101562    
 765-42-355      2590.0000000        2591.0500488       -1.0500488281    
 765-48-348      2588.0000000        2583.3383789        4.6616210938    
 765-56-11       2585.0000000        2573.6687012        11.331298828    
 765-61-48       2578.0000000        2564.9079590        13.092041016    
 765-65-356      2569.0000000        2552.8950195        16.104980469    
 765-71-362      2559.0000000        2538.8188477        20.181152344    
 718-37-32       2606.0000000        2647.6452637       -41.645263672    
 718-48-334      2620.0000000        2639.8210449       -19.821044922    
 718-56-16       2618.0000000        2632.9582520       -14.958251953    
 718-61-53       2611.0000000        2627.4418945       -16.441894531    
 718-66-32       2605.0000000        2620.7338867       -15.733886719    
 718-71-60       2597.0000000        2612.4409180       -15.440917969    
 728-7-85        2589.0000000        2610.8120117       -21.812011719    
 728-12-124      2591.0000000        2610.0849609       -19.084960938    
 728-17-78       2590.0000000        2608.8869629       -18.886962891    
 728-27-5        2585.0000000        2603.9331055       -18.933105469    
 728-32-6        2583.0000000        2599.8444824       -16.844482422    
 728-37-32       2577.0000000        2594.7402344       -17.740234375    
 728-42-355      2577.0000000        2586.8496094       -9.8496093750    
 728-48-334      2571.0000000        2578.1323242       -7.1323242188    
 728-56-18       2565.0000000        2567.3361816       -2.3361816406    
 681-7-358       2622.0000000        2637.1584473       -15.158447266    
 681-12-103      2627.0000000        2636.9301758       -9.9301757812    
 681-17-78       2625.0000000        2636.3542480       -11.354248047    
 681-32-61       2617.0000000        2631.7204590       -14.720458984    
 681-37-32       2608.0000000        2629.0009766       -21.000976562    
 662-71-365      2600.0000000        2628.4873047       -28.487304688    
 616-42-355      2610.0000000        2634.4875488       -24.487548828    
 616-56-16       2613.0000000        2617.2563477       -4.2563476562    
 825-71-62       2683.0000000        2784.1535645       -101.15356445    
 608-32-62       2625.0000000        2656.7246094       -31.724609375    
 608-48-348      2612.0000000        2646.6704102       -34.670410156    
 608-56-11       2610.0000000        2640.2050781       -30.205078125    
 608-61-41       2604.0000000        2634.9985352       -30.998535156    
 608-65-355      2598.0000000        2630.1052246       -32.105224609    
 608-71-365      2590.0000000        2621.8159180       -31.815917969    
 559-8-73        2650.0000000        2685.8950195       -35.895019531    
 559-12-60       2648.0000000        2685.8364258       -37.836425781    
 559-17-78       2645.0000000        2685.6557617       -40.655761719    
 559-32-62       2635.0000000        2684.2424316       -49.242431641    
 559-36-335      2633.0000000        2683.4245605       -50.424560547    
 806-71-62       2679.0000000        2786.3710938       -107.37109375    
 771-43-68       2683.0000000        2727.7138672       -44.713867188    
 764-43-68       2679.0000000        2709.2399902       -30.239990234    
 764-48-342      2689.0000000        2707.6369629       -18.636962891    
 764-56-17       2685.0000000        2704.5581055       -19.558105469    
 764-61-60       2681.0000000        2702.6350098       -21.635009766    
 764-66-19       2671.0000000        2699.2849121       -28.284912109    
 764-71-63       2637.0000000        2690.3383789       -53.338378906    
 731-32-61       2676.0000000        2726.9689941       -50.968994141    
 731-42-355      2676.0000000        2723.6149902       -47.614990234    
 730-48-342      2689.0000000        2722.2399902       -33.239990234    
 730-56-17       2682.0000000        2719.8635254       -37.863525391    
 730-60-320      2678.0000000        2718.6738281       -40.673828125    
 730-71-365      2653.0000000        2709.2663574       -56.266357422    
 725-48-343      2682.0000000        2720.8923340       -38.892333984    
 725-56-16       2675.0000000        2718.3579102       -43.357910156    
 725-61-59       2671.0000000        2716.7866211       -45.786621094    
 725-66-19       2660.0000000        2712.8984375       -52.898437500    
 725-71-63       2649.0000000        2708.5375977       -59.537597656    
 683-7-360       2686.0000000        2720.2573242       -34.257324219    
 683-12-102      2682.0000000        2720.1552734       -38.155273438    
 683-17-78       2681.0000000        2719.9531250       -38.953125000    
 683-32-61       2678.0000000        2720.3449707       -42.344970703    
 683-37-32       2678.0000000        2720.7094727       -42.709472656    
 683-48-342      2690.0000000        2718.9062500       -28.906250000    
 528-56-10       2551.0000000        2488.3315430        62.668457031    
 528-61-56       2563.0000000        2469.2358398        93.764160156    
 528-66-34       2585.0000000        2487.2556152        97.744384766    
 532-56-10       2465.0000000        2489.7370605       -24.737060547    
 532-61-56       2464.0000000        2468.3168945       -4.3168945312    
 523-42-363      2441.0000000        2437.8933105        3.1066894531    
 523-48-343      2487.0000000        2499.1870117       -12.187011719    
 523-56-10       2443.0000000        2471.4599609       -28.459960938    
 523-61-56       2416.0000000        2451.9411621       -35.941162109    
 506-31-282      2501.0000000        2531.9438477       -30.943847656    
 506-56-10       2455.0000000        2486.0095215       -31.009521484    
 506-60-321      2429.0000000        2467.7160645       -38.716064453    
 516-56-10       2456.0000000        2478.8298340       -22.829833984    
 516-61-56       2430.0000000        2458.3500977       -28.350097656    
 507-17-55       2618.0000000        2612.5815430        5.4184570312    
 507-22-40       2610.0000000        2596.8503418        13.149658203    
 507-26-299      2574.0000000        2577.1437988       -3.1437988281    
 507-31-335      2512.0000000        2536.0480957       -24.048095703    
 507-48-343      2489.0000000        2506.7434082       -17.743408203    
 507-56-10       2454.0000000        2492.9211426       -38.921142578    
 496-17-55       2616.0000000        2621.2265625       -5.2265625000    
 496-22-40       2601.0000000        2604.2988281       -3.2988281250    
 496-31-335      2517.0000000        2552.9045410       -35.904541016    
 492-56-10       2460.0000000        2498.1994629       -38.199462891    
 492-61-60       2433.0000000        2479.7395020       -46.739501953    
 492-66-31       2444.0000000        2475.1723633       -31.172363281    
 466-56-10       2485.0000000        2520.0620117       -35.062011719    
 466-61-60       2462.0000000        2505.6884766       -43.688476562    
 466-66-34       2469.0000000        2490.3156738       -21.315673828    
 462-56-10       2487.0000000        2524.5727539       -37.572753906    
 462-61-60       2467.0000000        2511.4802246       -44.480224609    
 462-66-34       2471.0000000        2495.8784180       -24.878417969    
 476-56-10       2543.0000000        2496.7644043        46.235595703    
 476-61-60       2520.0000000        2478.8498535        41.150146484    
 465-56-10       2488.0000000        2519.9792480       -31.979248047    
 465-61-60       2465.0000000        2505.4343262       -40.434326172    
 465-66-34       2471.0000000        2489.9938965       -18.993896484    
 460-1-365       2621.0000000        2663.3898926       -42.389892578    
 458-38-7        2512.0000000        2519.1940918       -7.1940917969    
 458-48-336      2521.0000000        2501.5927734        19.407226562    
 458-56-10       2500.0000000        2499.8237305       0.17626953125    
 458-61-60       2475.0000000        2484.1936035       -9.1936035156    
 458-66-54       2482.0000000        2467.3703613        14.629638672    
 458-71-34       2477.0000000        2455.5273438        21.472656250    
 440-38-6        2577.0000000        2516.4201660        60.579833984    
 440-42-356      2567.0000000        2499.0556641        67.944335938    
 440-48-337      2577.0000000        2515.0576172        61.942382812    
 443-1-365       2655.0000000        2671.3071289       -16.307128906    
 439-1-358       2668.0000000        2674.9082031       -6.9082031250    
 439-4-350       2664.0000000        2667.5219727       -3.5219726562    
 449-10-89       2694.0000000        2660.5615234        33.438476562    
 418-48-342      2555.0000000        2712.8803711       -157.88037109    
 418-56-18       2536.0000000        2711.3864746       -175.38647461    
 415-48-342      2559.0000000        2668.3166504       -109.31665039    
 415-56-18       2540.0000000        2668.6164551       -128.61645508    
 421-34-313      2575.0000000        2608.7272949       -33.727294922    
 421-48-343      2651.0000000        2571.3579102        79.642089844    
 421-56-12       2520.0000000        2581.9008789       -61.900878906    
 421-61-60       2505.0000000        2572.0112305       -67.011230469    
 417-34-60       2622.0000000        2632.8476562       -10.847656250    
 412-6-290       2682.0000000        2684.4177246       -2.4177246094    
 412-10-297      2676.0000000        2680.1936035       -4.1936035156    
 412-17-4        2653.0000000        2665.8095703       -12.809570312    
 412-27-12       2630.0000000        2622.4685059        7.5314941406    
 412-38-6        2587.0000000        2539.3322754        47.667724609    
 412-42-356      2584.0000000        2525.1623535        58.837646484    
 412-48-336      2593.0000000        2537.1279297        55.872070312    
 411-48-336      2587.0000000        2501.7612305        85.238769531    
 411-56-11       2548.0000000        2503.7319336        44.268066406    
 411-61-60       2529.0000000        2488.3142090        40.685791016    
 411-66-54       2524.0000000        2462.2858887        61.714111328    
 411-71-33       2510.0000000        2434.1323242        75.867675781    
 405-38-6        2576.0000000        2508.6921387        67.307861328    
 405-42-355      2545.0000000        2517.7651367        27.234863281    
 405-48-334      2569.0000000        2486.8542480        82.145751953    
 405-56-11       2572.0000000        2490.4221191        81.577880859    
 405-61-60       2539.0000000        2476.7189941        62.281005859    
 405-66-54       2530.0000000        2448.0197754        81.980224609    
 405-71-33       2515.0000000        2414.0927734        100.90722656    
 396-17-4        2673.0000000        2674.4296875       -1.4296875000    
 396-27-12       2636.0000000        2629.2939453        6.7060546875    
 396-38-6        2595.0000000        2536.6694336        58.330566406    
 396-42-355      2564.0000000        2531.8447266        32.155273438    
 396-48-336      2581.0000000        2543.1735840        37.826416016    
 393-1-358       2703.0000000        2707.6193848       -4.6193847656    
 398-38-6        2565.0000000        2535.7458496        29.254150391    
 398-42-356      2540.0000000        2532.0888672        7.9111328125    
 387-42-356      2544.0000000        2539.2253418        4.7746582031    
 387-48-336      2564.0000000        2561.2983398        2.7016601562    
 387-56-11       2551.0000000        2561.6489258       -10.648925781    
 387-61-60       2535.0000000        2540.4768066       -5.4768066406    
 387-66-54       2531.0000000        2520.0302734        10.969726562    
 387-71-33       2515.0000000        2489.9123535        25.087646484    
 386-17-4        2684.0000000        2683.2885742       0.71142578125    
 386-27-12       2644.0000000        2636.9877930        7.0122070312    
 386-48-336      2595.0000000        2568.2702637        26.729736328    
 381-38-6        2578.0000000        2574.2412109        3.7587890625    
 381-42-356      2574.0000000        2562.0708008        11.929199219    
 381-48-336      2584.0000000        2571.1845703        12.815429688    
 361-26-295      2654.0000000        2646.3381348        7.6618652344    
 361-43-14       2526.0000000        2522.6989746        3.3010253906    
 361-56-12       2552.0000000        2582.5192871       -30.519287109    
 361-61-60       2534.0000000        2561.5705566       -27.570556641    
 361-66-31       2524.0000000        2542.2885742       -18.288574219    
 365-1-365       2700.0000000        2725.6555176       -25.655517578    
 364-42-356      2553.0000000        2478.2839355        74.716064453    
 363-1-365       2702.0000000        2720.9494629       -18.949462891    
 391-56-12       2551.0000000        2592.2924805       -41.292480469    
 391-61-60       2535.0000000        2558.0280762       -23.028076172    
 372-43-14       2535.0000000        2594.4660645       -59.466064453    
 372-56-12       2543.0000000        2596.7548828       -53.754882812    
 372-61-60       2535.0000000        2565.7387695       -30.738769531    
 375-56-19       2559.0000000        2619.7797852       -60.779785156    
 358-56-19       2556.0000000        2623.0808105       -67.080810547    
 350-56-19       2568.0000000        2626.9277344       -58.927734375    
 343-56-19       2566.0000000        2628.8969727       -62.896972656    
 345-43-6        2552.0000000        2653.1518555       -101.15185547    
 356-56-12       2558.0000000        2612.4760742       -54.476074219    
 356-61-60       2544.0000000        2587.9208984       -43.920898438    
 352-17-4        2694.0000000        2704.8127441       -10.812744141    
 352-22-51       2686.0000000        2681.8288574        4.1711425781    
 352-27-14       2662.0000000        2668.8613281       -6.8613281250    
 342-37-342      2587.0000000        2654.1245117       -67.124511719    
 342-43-14       2567.0000000        2640.3134766       -73.313476562    
 349-27-13       2659.0000000        2662.9599609       -3.9599609375    
 348-56-11       2621.0000000        2618.3356934        2.6643066406    
 348-61-54       2610.0000000        2602.1025391        7.8974609375    
 348-66-35       2604.0000000        2581.9072266        22.092773438    
 351-3-56        2741.0000000        2736.7048340        4.2951660156    
 351-22-46       2687.0000000        2680.7448730        6.2551269531    
 351-27-62       2672.0000000        2666.3203125        5.6796875000    
 351-37-342      2622.0000000        2630.3413086       -8.3413085938    
 351-43-14       2621.0000000        2619.8779297        1.1220703125    
 351-48-337      2632.0000000        2622.9323730        9.0676269531    
 351-56-11       2632.0000000        2621.2521973        10.747802734    
 351-61-54       2623.0000000        2602.4899902        20.510009766    
 351-66-35       2620.0000000        2585.9377441        34.062255859    
 346-17-4        2697.0000000        2708.7673340       -11.767333984    
 346-27-14       2658.0000000        2671.2866211       -13.286621094    
 347-11-304      2719.0000000        2725.0900879       -6.0900878906    
 347-17-59       2705.0000000        2705.9089355      -0.90893554688    
 347-22-46       2680.0000000        2685.2062988       -5.2062988281    
 347-27-14       2664.0000000        2670.1350098       -6.1350097656    
 347-31-335      2647.0000000        2658.1838379       -11.183837891    
 347-56-11       2625.0000000        2627.5031738       -2.5031738281    
 347-61-54       2617.0000000        2609.4279785        7.5720214844    
 347-66-35       2608.0000000        2592.7390137        15.260986328    
 341-17-4        2701.0000000        2711.0234375       -10.023437500    
 524-37-354      2605.0000000        2597.0888672        7.9111328125    
 524-43-4        2599.0000000        2585.3054199        13.694580078    
 524-48-335      2592.0000000        2573.3393555        18.660644531    
 524-56-9        2592.0000000        2563.1889648        28.811035156    
 524-61-47       2583.0000000        2554.6923828        28.307617188    
 524-65-357      2580.0000000        2550.7014160        29.298583984    
 524-71-362      2584.0000000        2551.8352051        32.164794922    
 3418-43-4       2540.0000000        2557.5473633       -17.547363281    
 3418-48-362     2529.0000000        2543.7973633       -14.797363281    
 3418-56-9       2554.0000000        2535.9006348        18.099365234    
 3418-65-357     2528.0000000        2517.5837402        10.416259766    
 3418-71-362     2567.0000000        2521.8195801        45.180419922    
 525-35-347      2563.0000000        2560.2473145        2.7526855469    
 525-56-9        2518.0000000        2518.2949219      -0.29492187500    
 525-71-362      2568.0000000        2511.9055176        56.094482422    
 514-31-335      2560.0000000        2569.0942383       -9.0942382812    
 514-36-360      2541.0000000        2539.5766602        1.4233398438    
 514-43-4        2545.0000000        2520.9265137        24.073486328    
 514-48-362      2545.0000000        2512.2001953        32.799804688    
 514-56-9        2548.0000000        2506.7338867        41.266113281    
 514-61-47       2536.0000000        2493.6228027        42.377197266    
 514-65-357      2542.0000000        2488.6311035        53.368896484    
 514-71-362      2568.0000000        2506.6809082        61.319091797    
 513-32-41       2552.0000000        2559.3664551       -7.3664550781    
 513-39-60       2558.0000000        2523.5544434        34.445556641    
 513-43-4        2538.0000000        2512.7104492        25.289550781    
 513-48-362      2544.0000000        2510.3178711        33.682128906    
 513-56-9        2553.0000000        2502.9821777        50.017822266    
 513-61-47       2533.0000000        2488.7158203        44.284179688    
 513-65-357      2541.0000000        2486.4814453        54.518554688    
 513-71-362      2568.0000000        2503.3552246        64.644775391    
 526-11-307      2603.0000000        2617.7172852       -14.717285156    
 526-17-53       2591.0000000        2608.3215332       -17.321533203    
 526-22-38       2579.0000000        2591.8564453       -12.856445312    
 487-17-4        2600.0000000        2618.8317871       -18.831787109    
 487-27-10       2590.0000000        2583.8083496        6.1916503906    
 487-38-6        2565.0000000        2521.7050781        43.294921875    
 487-42-356      2539.0000000        2504.7504883        34.249511719    
 494-42-355      2519.0000000        2502.1872559        16.812744141    
 494-48-334      2533.0000000        2501.4655762        31.534423828    
 494-56-10       2544.0000000        2492.0014648        51.998535156    
 494-61-60       2518.0000000        2482.9416504        35.058349609    
 494-66-49       2535.0000000        2477.5280762        57.471923828    
 494-71-33       2549.0000000        2479.0192871        69.980712891    
 530-38-6        2527.0000000        2488.1660156        38.833984375    
 530-48-334      2529.0000000        2500.2500000        28.750000000    
 530-56-10       2531.0000000        2485.4963379        45.503662109    
 530-61-60       2523.0000000        2471.1723633        51.827636719    
 530-66-49       2543.0000000        2485.2597656        57.740234375    
 530-71-33       2549.0000000        2491.9636230        57.036376953    
 509-38-6        2536.0000000        2496.8598633        39.140136719    
 509-42-355      2502.0000000        2486.0297852        15.970214844    
 509-48-334      2532.0000000        2501.5500488        30.449951172    
 509-56-10       2532.0000000        2491.0109863        40.989013672    
 509-61-60       2516.0000000        2475.6757812        40.324218750    
 509-66-49       2535.0000000        2477.6064453        57.393554688    
 509-71-33       2542.0000000        2481.4133301        60.586669922    
 518-17-3        2603.0000000        2609.2922363       -6.2922363281    
 518-27-11       2565.0000000        2573.7468262       -8.7468261719    
 518-42-355      2539.0000000        2486.7456055        52.254394531    
 510-1-358       2622.0000000        2636.8327637       -14.832763672    
 495-1-358       2628.0000000        2646.1550293       -18.155029297    
 491-7-49        2629.0000000        2633.3220215       -4.3220214844    
 490-7-49        2623.0000000        2634.5000000       -11.500000000    
 490-17-4        2607.0000000        2617.9042969       -10.904296875    
 490-27-10       2601.0000000        2582.1855469        18.814453125    
 481-38-7        2576.0000000        2505.6359863        70.364013672    
 481-42-355      2557.0000000        2489.7983398        67.201660156    
 481-48-334      2565.0000000        2498.3256836        66.674316406    
 481-56-10       2566.0000000        2490.0659180        75.934082031    
 481-61-60       2548.0000000        2472.9123535        75.087646484    
 481-66-49       2562.0000000        2464.9020996        97.097900391    
 481-71-33       2568.0000000        2464.1193848        103.88061523    
 473-38-7        2580.0000000        2516.2768555        63.723144531    
 473-42-355      2563.0000000        2495.2636719        67.736328125    
 484-38-6        2395.0000000        2494.0361328       -99.036132812    
 455-22-51       2600.0000000        2607.7885742       -7.7885742188    
 455-27-11       2605.0000000        2593.1284180        11.871582031    
 455-38-7        2560.0000000        2515.0808105        44.919189453    
 455-42-355      2542.0000000        2501.3647461        40.635253906    
 455-48-336      2559.0000000        2486.5971680        72.402832031    
 457-1-358       2645.0000000        2662.5261230       -17.526123047    
 456-38-6        2573.0000000        2510.6269531        62.373046875    
 456-42-356      2540.0000000        2497.8144531        42.185546875    
 456-48-334      2557.0000000        2478.9680176        78.031982422    
 456-56-10       2556.0000000        2473.0122070        82.987792969    
 456-61-60       2533.0000000        2453.9924316        79.007568359    
 456-66-54       2542.0000000        2442.6203613        99.379638672    
 456-71-33       2543.0000000        2433.5825195        109.41748047    
 454-8-253       2652.0000000        2637.2893066        14.710693359    
 454-38-6        2572.0000000        2518.5419922        53.458007812    
 454-42-355      2549.0000000        2503.8989258        45.101074219    
 454-48-334      2559.0000000        2494.4169922        64.583007812    
 454-56-10       2567.0000000        2487.6188965        79.381103516    
 454-61-60       2542.0000000        2471.5117188        70.488281250    
 454-66-49       2551.0000000        2459.2866211        91.713378906    
 454-71-33       2555.0000000        2451.4079590        103.59204102    
 483-48-334      2555.0000000        2512.6745605        42.325439453    
 475-1-365       2620.0000000        2649.3752441       -29.375244141    
 472-17-4        2609.0000000        2625.2280273       -16.228027344    
 472-27-12       2590.0000000        2589.0102539       0.98974609375    
 472-38-6        2566.0000000        2528.4440918        37.555908203    
 472-42-355      2533.0000000        2509.8984375        23.101562500    
 472-48-334      2548.0000000        2517.5417480        30.458251953    
 464-17-4        2599.0000000        2621.5966797       -22.596679688    
 464-27-12       2591.0000000        2592.8503418       -1.8503417969    
 464-48-336      2546.0000000        2502.3652344        43.634765625    
 442-71-61       2631.0000000        2602.4902344        28.509765625    
 438-48-336      2577.0000000        2533.5017090        43.498291016    
 436-71-336      2533.0000000        2465.3125000        67.687500000    
 422-17-55       2653.0000000        2651.1625977        1.8374023438    
 422-22-38       2624.0000000        2631.4304199       -7.4304199219    
 422-27-12       2625.0000000        2617.6159668        7.3840332031    
 422-31-335      2595.0000000        2599.2875977       -4.2875976562    
 422-38-91       2581.0000000        2561.0617676        19.938232422    
 426-48-336      2582.0000000        2541.2368164        40.763183594    
 426-56-13       2579.0000000        2537.0339355        41.966064453    
 426-66-34       2577.0000000        2514.5634766        62.436523438    
 430-7-49        2654.0000000        2661.3632812       -7.3632812500    
 430-17-4        2626.0000000        2642.3371582       -16.337158203    
 430-27-10       2612.0000000        2605.2182617        6.7817382812    
 432-38-6        2588.0000000        2519.5874023        68.412597656    
 432-42-356      2564.0000000        2505.7460938        58.253906250    
 432-48-334      2580.0000000        2491.0791016        88.920898438    
 432-56-10       2578.0000000        2484.4475098        93.552490234    
 432-61-60       2553.0000000        2467.6159668        85.384033203    
 432-66-49       2562.0000000        2452.0578613        109.94213867    
 432-71-33       2563.0000000        2437.7705078        125.22949219    
 452-48-335      2553.0000000        2515.1870117        37.812988281    
 452-56-11       2550.0000000        2511.2834473        38.716552734    
 431-1-358       2659.0000000        2672.6284180       -13.628417969    
 431-6-340       2656.0000000        2662.9521484       -6.9521484375    
 431-11-333      2649.0000000        2656.4895020       -7.4895019531    
 431-36-38       2623.0000000        2550.5078125        72.492187500    
 429-42-356      2535.0000000        2513.8718262        21.128173828    
 429-48-334      2555.0000000        2495.9855957        59.014404297    
 429-56-11       2556.0000000        2488.4709473        67.529052734    
 429-61-60       2526.0000000        2473.5068359        52.493164062    
 429-66-54       2537.0000000        2456.6857910        80.314208984    
 429-71-33       2536.0000000        2441.5383301        94.461669922    
 420-17-7        2664.0000000        2651.4685059        12.531494141    
 420-27-10       2631.0000000        2613.9384766        17.061523438    
 420-48-335      2595.0000000        2530.2521973        64.747802734    
 407-38-6        2581.0000000        2533.8505859        47.149414062    
 407-42-355      2554.0000000        2529.6401367        24.359863281    
 407-48-334      2561.0000000        2536.1083984        24.891601562    
 401-38-6        2603.0000000        2546.0898438        56.910156250    
 401-42-355      2590.0000000        2541.8276367        48.172363281    
 401-48-335      2603.0000000        2546.9809570        56.019042969    
 410-42-355      2552.0000000        2514.8095703        37.190429688    
 410-48-334      2569.0000000        2489.1220703        79.877929688    
 410-56-10       2565.0000000        2487.7358398        77.264160156    
 410-61-60       2542.0000000        2472.4934082        69.506591797    
 410-66-49       2542.0000000        2446.9194336        95.080566406    
 410-71-33       2532.0000000        2426.5454102        105.45458984    
 376-31-348      2628.0000000        2619.7167969        8.2832031250    
 376-37-19       2619.0000000        2599.8315430        19.168457031    
 376-43-47       2613.0000000        2578.0800781        34.919921875    
 376-48-343      2612.0000000        2565.2309570        46.769042969    
 376-56-11       2610.0000000        2559.1108398        50.889160156    
 376-60-321      2601.0000000        2553.6101074        47.389892578    
 376-65-298      2592.0000000        2544.8168945        47.183105469    
 414-71-365      2596.0000000        2547.3327637        48.667236328    
 416-34-357      2620.0000000        2623.7082520       -3.7082519531    
 366-17-55       2706.0000000        2693.7216797        12.278320312    
 366-22-33       2684.0000000        2681.6530762        2.3469238281    
 366-27-10       2661.0000000        2670.1250000       -9.1250000000    
 366-33-10       2665.0000000        2657.7910156        7.2089843750    
 370-17-55       2688.0000000        2681.3244629        6.6755371094    
 370-22-46       2656.0000000        2659.9841309       -3.9841308594    
 370-31-335      2635.0000000        2629.4318848        5.5681152344    
 370-37-91       2621.0000000        2604.4318848        16.568115234    
 394-27-10       2646.0000000        2628.4782715        17.521728516    
 389-42-355      2540.0000000        2513.1987305        26.801269531    
 389-48-334      2565.0000000        2481.9584961        83.041503906    
 389-56-10       2558.0000000        2480.7238770        77.276123047    
 389-61-60       2538.0000000        2465.8027344        72.197265625    
 389-66-48       2533.0000000        2435.8112793        97.188720703    
 389-71-33       2536.0000000        2427.9853516        108.01464844    
 382-48-334      2611.0000000        2563.3564453        47.643554688    
 395-17-4        2679.0000000        2671.2153320        7.7846679688    
 395-27-13       2665.0000000        2627.9716797        37.028320312    
 395-38-6        2584.0000000        2551.2915039        32.708496094    
 395-42-356      2555.0000000        2545.5532227        9.4467773438    
 395-48-334      2577.0000000        2554.8085938        22.191406250    
 395-56-11       2573.0000000        2554.5063477        18.493652344    
 395-61-60       2524.0000000        2534.5895996       -10.589599609    
 395-66-54       2507.0000000        2495.8620605        11.137939453    
 395-71-33       2530.0000000        2455.2875977        74.712402344    
 379-42-356      2562.0000000        2568.2434082       -6.2434082031    
 379-48-334      2586.0000000        2570.4169922        15.583007812    
 379-56-11       2583.0000000        2569.4821777        13.517822266    
 385-7-49        2700.0000000        2698.0383301        1.9616699219    
 384-7-49        2698.0000000        2698.3725586      -0.37255859375    
 374-1-358       2693.0000000        2712.8620605       -19.862060547    
 362-38-6        2600.0000000        2462.5283203        137.47167969    
 362-42-355      2577.0000000        2506.5454102        70.454589844    
 362-48-334      2593.0000000        2552.4458008        40.554199219    
 362-56-10       2592.0000000        2549.9645996        42.035400391    
 362-61-60       2572.0000000        2529.2885742        42.711425781    
 362-66-48       2562.0000000        2505.2724609        56.727539062    
 362-71-33       2575.0000000        2479.8544922        95.145507812    
 360-26-313      2647.0000000        2647.1857910      -0.18579101562    
 360-38-6        2600.0000000        2562.9072266        37.092773438    
 371-38-6        2598.0000000        2565.8859863        32.114013672    
 371-42-355      2579.0000000        2568.0017090        10.998291016    
 355-48-342      2616.0000000        2602.3120117        13.687988281    
 355-56-13       2614.0000000        2602.0754395        11.924560547    
 355-61-61       2600.0000000        2584.7937012        15.206298828    
 355-66-32       2588.0000000        2564.4130859        23.586914062    
 353-1-365       2705.0000000        2727.0444336       -22.044433594    
 353-8-22        2704.0000000        2718.3796387       -14.379638672    
 353-11-304      2703.0000000        2713.5585938       -10.558593750    
 353-61-61       2610.0000000        2591.9174805        18.082519531    
 353-66-32       2603.0000000        2573.2712402        29.728759766    
 501-27-60       2646.0000000        2695.8789062       -49.878906250    
 501-37-32       2639.0000000        2694.1230469       -55.123046875    
 501-43-53       2640.0000000        2692.1828613       -52.182861328    
 501-48-336      2640.0000000        2689.4672852       -49.467285156    
 501-56-17       2639.0000000        2685.3320312       -46.332031250    
 501-60-320      2639.0000000        2682.3576660       -43.357666016    
 501-65-299      2639.0000000        2678.9116211       -39.911621094    
 501-71-365      2638.0000000        2673.3630371       -35.363037109    
 536-61-52       2579.0000000        2579.1984863      -0.19848632812    
 536-66-18       2575.0000000        2572.8264160        2.1735839844    
 536-71-62       2575.0000000        2568.6350098        6.3649902344    
 540-43-50       2603.0000000        2608.4028320       -5.4028320312    
 540-56-17       2588.0000000        2586.8901367        1.1098632812    
 451-37-32       2707.0000000        2743.9023438       -36.902343750    
 451-43-53       2715.0000000        2742.7482910       -27.748291016    
 451-48-336      2727.0000000        2741.1555176       -14.155517578    
 451-56-17       2744.0000000        2738.4106445        5.5893554688    
 451-61-52       2743.0000000        2736.0522461        6.9477539062    
 451-71-336      2764.0000000        2729.9438477        34.056152344    
 419-71-61       2695.0000000        2660.9638672        34.036132812    
 425-71-61       2749.0000000        2732.0727539        16.927246094    
 397-48-336      2815.0000000        2764.2426758        50.757324219    
 378-71-61       2711.0000000        2712.5366211       -1.5366210938    
 477-7-99        2664.0000000        2659.6923828        4.3076171875    
 477-11-60       2664.0000000        2658.9680176        5.0319824219    
 477-17-53       2663.0000000        2657.2065430        5.7934570312    
 477-22-39       2662.0000000        2654.8308105        7.1691894531    
 477-32-6        2659.0000000        2646.5642090        12.435791016    
 477-37-32       2648.0000000        2640.5021973        7.4978027344    
 478-48-335      2652.0000000        2620.9724121        31.027587891    
 478-56-17       2645.0000000        2610.9179688        34.082031250    
 218-42-337      3145.0000000        2996.1257324        148.87426758    
 337-37-343      2555.0000000        2600.2346191       -45.234619141    
 337-43-14       2542.0000000        2612.4689941       -70.468994141    
 337-56-12       2564.0000000        2628.8183594       -64.818359375    
 337-61-61       2546.0000000        2612.1931152       -66.193115234    
 337-66-31       2536.0000000        2595.5654297       -59.565429688    
 328-56-11       2652.0000000        2646.3464355        5.6535644531    
 328-61-61       2636.0000000        2630.0292969        5.9707031250    
 328-66-32       2627.0000000        2614.3657227        12.634277344    
 329-1-365       2746.0000000        2758.0585938       -12.058593750    
 327-1-365       2754.0000000        2759.2316895       -5.2316894531    
 326-26-319      2678.0000000        2686.5751953       -8.5751953125    
 326-31-335      2666.0000000        2675.6906738       -9.6906738281    
 326-38-32       2654.0000000        2646.5581055        7.4418945312    
 326-56-11       2626.0000000        2646.1157227       -20.115722656    
 326-61-54       2609.0000000        2630.6511230       -21.651123047    
 326-66-32       2598.0000000        2615.8000488       -17.800048828    
 321-43-14       2563.0000000        2652.1223145       -89.122314453    
 321-56-12       2596.0000000        2647.0134277       -51.013427734    
 322-1-358       2756.0000000        2763.0319824       -7.0319824219    
 322-6-340       2750.0000000        2751.2104492       -1.2104492188    
 322-11-333      2738.0000000        2740.7297363       -2.7297363281    
 322-16-301      2717.0000000        2729.0195312       -12.019531250    
 322-22-46       2703.0000000        2708.4279785       -5.4279785156    
 322-27-32       2691.0000000        2690.9406738       5.93261718750E-02
 308-34-333      2660.0000000        2685.5800781       -25.580078125    
 316-7-283       2748.0000000        2752.3955078       -4.3955078125    
 316-11-333      2738.0000000        2742.5102539       -4.5102539062    
 316-16-301      2734.0000000        2730.7170410        3.2829589844    
 316-22-46       2699.0000000        2710.6105957       -11.610595703    
 316-27-11       2692.0000000        2693.4248047       -1.4248046875    
 316-31-335      2674.0000000        2685.8745117       -11.874511719    
 316-38-32       2663.0000000        2664.5317383       -1.5317382812    
 316-48-337      2639.0000000        2663.4760742       -24.476074219    
 316-56-11       2632.0000000        2657.0964355       -25.096435547    
 316-60-321      2616.0000000        2641.2153320       -25.215332031    
 316-65-300      2582.0000000        2628.4536133       -46.453613281    
 310-1-365       2757.0000000        2766.3039551       -9.3039550781    
 310-27-49       2692.0000000        2696.0048828       -4.0048828125    
 310-56-11       2649.0000000        2658.8637695       -9.8637695312    
 310-61-54       2633.0000000        2643.1311035       -10.131103516    
 310-66-32       2621.0000000        2629.3662109       -8.3662109375    
 324-1-365       2740.0000000        2758.3276367       -18.327636719    
 307-56-11       2680.0000000        2659.5090332        20.490966797    
 335-1-365       2755.0000000        2754.7849121       0.21508789062    
 333-56-9        2601.0000000        2640.2004395       -39.200439453    
 323-56-11       2640.0000000        2650.9436035       -10.943603516    
 323-61-61       2610.0000000        2635.0986328       -25.098632812    
 311-17-5        2717.0000000        2732.6853027       -15.685302734    
 311-27-14       2682.0000000        2693.2749023       -11.274902344    
 314-56-25       2590.0000000        2651.0585938       -61.058593750    
 314-61-62       2580.0000000        2636.2475586       -56.247558594    
 318-48-343      2595.0000000        2671.7646484       -76.764648438    
 302-42-348      2592.0000000        2667.1589355       -75.158935547    
 301-22-62       2697.0000000        2710.3229980       -13.322998047    
 301-27-6        2674.0000000        2687.7770996       -13.777099609    
 301-38-32       2639.0000000        2680.5805664       -41.580566406    
 295-22-62       2740.0000000        2718.2431641        21.756835938    
 295-38-5        2669.0000000        2689.9946289       -20.994628906    
 295-56-24       2659.0000000        2671.5263672       -12.526367188    
 295-66-32       2645.0000000        2651.2827148       -6.2827148438    
 281-38-5        2639.0000000        2691.0749512       -52.074951172    
 281-42-348      2619.0000000        2691.7351074       -72.735107422    
 270-22-62       2711.0000000        2740.1547852       -29.154785156    
 270-38-32       2656.0000000        2711.7624512       -55.762451172    
 271-38-5        2645.0000000        2699.4003906       -54.400390625    
 271-42-348      2625.0000000        2697.5205078       -72.520507812    
 271-48-337      2650.0000000        2706.1672363       -56.167236328    
 271-56-10       2638.0000000        2687.8310547       -49.831054688    
 271-61-61       2623.0000000        2671.4443359       -48.444335938    
 271-66-61       2620.0000000        2664.9592285       -44.959228516    
 290-56-25       2624.0000000        2666.4692383       -42.469238281    
 290-61-62       2610.0000000        2651.9394531       -41.939453125    
 280-17-4        2729.0000000        2753.7700195       -24.770019531    
 280-27-14       2698.0000000        2711.3483887       -13.348388672    
 278-7-274       2772.0000000        2772.3129883      -0.31298828125    
 274-7-274       2767.0000000        2769.5822754       -2.5822753906    
 274-38-7        2670.0000000        2688.3781738       -18.378173828    
 274-42-355      2647.0000000        2677.5676270       -30.567626953    
 274-48-335      2671.0000000        2685.6052246       -14.605224609    
 274-56-11       2668.0000000        2676.2666016       -8.2666015625    
 279-17-5        2745.0000000        2745.0151367      -1.51367187500E-02
 279-42-355      2665.0000000        2675.4038086       -10.403808594    
 282-42-355      2655.0000000        2678.6186523       -23.618652344    
 282-48-335      2666.0000000        2679.7380371       -13.738037109    
 282-56-11       2674.0000000        2671.5830078        2.4169921875    
 282-61-60       2656.0000000        2658.4758301       -2.4758300781    
 282-66-48       2645.0000000        2645.5549316      -0.55493164062    
 265-42-355      2668.0000000        2692.8156738       -24.815673828    
 265-48-335      2690.0000000        2697.0781250       -7.0781250000    
 265-56-11       2688.0000000        2687.2604980       0.73950195312    
 265-61-60       2671.0000000        2673.6982422       -2.6982421875    
 265-66-48       2660.0000000        2664.2487793       -4.2487792969    
 265-71-34       2645.0000000        2658.7412109       -13.741210938    
 264-38-7        2690.0000000        2694.6354980       -4.6354980469    
 264-42-355      2677.0000000        2683.0170898       -6.0170898438    
 264-48-335      2699.0000000        2693.3354492        5.6645507812    
 264-56-11       2697.0000000        2683.1376953        13.862304688    
 264-61-60       2681.0000000        2668.3583984        12.641601562    
 264-66-48       2672.0000000        2659.0148926        12.985107422    
 264-71-34       2654.0000000        2654.5075684      -0.50756835938    
 268-1-365       2783.0000000        2789.2399902       -6.2399902344    
 268-38-7        2681.0000000        2695.6687012       -14.668701172    
 268-43-47       2665.0000000        2683.7019043       -18.701904297    
 268-48-335      2686.0000000        2694.9221191       -8.9221191406    
 250-7-274       2785.0000000        2787.8752441       -2.8752441406    
 250-17-5        2760.0000000        2764.7570801       -4.7570800781    
 250-38-7        2695.0000000        2711.4992676       -16.499267578    
 250-42-355      2675.0000000        2699.8469238       -24.846923828    
 250-56-11       2696.0000000        2691.7004395        4.2995605469    
 250-61-60       2679.0000000        2676.4335938        2.5664062500    
 250-66-48       2666.0000000        2666.1254883      -0.12548828125    
 250-71-34       2638.0000000        2658.5686035       -20.568603516    
 252-48-335      2702.0000000        2705.6450195       -3.6450195312    
 256-42-355      2668.0000000        2692.3010254       -24.301025391    
 256-48-335      2696.0000000        2699.7880859       -3.7880859375    
 256-56-11       2694.0000000        2687.6027832        6.3972167969    
 256-61-60       2678.0000000        2672.3493652        5.6506347656    
 256-66-48       2664.0000000        2661.8317871        2.1682128906    
 256-71-34       2646.0000000        2654.4477539       -8.4477539062    
 261-17-5        2756.0000000        2764.6738281       -8.6738281250    
 261-17-64       2755.0000000        2763.9001465       -8.9001464844    
 261-22-41       2740.0000000        2742.5646973       -2.5646972656    
 262-48-338      2688.0000000        2700.3764648       -12.376464844    
 262-56-9        2670.0000000        2685.9965820       -15.996582031    
 262-61-62       2657.0000000        2669.9248047       -12.924804688    
 247-1-365       2801.0000000        2805.7456055       -4.7456054688    
 247-7-291       2788.0000000        2795.9697266       -7.9697265625    
 247-27-11       2742.0000000        2742.4230957      -0.42309570312    
 266-36-1        2669.0000000        2721.3955078       -52.395507812    
 260-48-338      2665.0000000        2720.5109863       -55.510986328    
 259-56-9        2660.0000000        2704.1457520       -44.145751953    
 259-61-62       2645.0000000        2683.3227539       -38.322753906    
 259-66-47       2639.0000000        2679.5891113       -40.589111328    
 259-71-35       2623.0000000        2673.1787109       -50.178710938    
 269-38-4        2752.0000000        2793.5744629       -41.574462891    
 269-42-337      2753.0000000        2777.2109375       -24.210937500    
 269-48-337      2751.0000000        2760.9289551       -9.9289550781    
 269-56-10       2789.0000000        2749.3356934        39.664306641    
 269-61-61       2739.0000000        2718.1364746        20.863525391    
 269-66-61       2740.0000000        2714.0590820        25.940917969    
 257-56-10       2794.0000000        2757.4379883        36.562011719    
 257-61-61       2727.0000000        2723.6594238        3.3405761719    
 257-66-61       2727.0000000        2719.3483887        7.6516113281    
 254-38-4        2773.0000000        2814.8723145       -41.872314453    
 254-42-337      2764.0000000        2794.7568359       -30.756835938    
 253-48-337      2672.0000000        2738.1276855       -66.127685547    
 253-56-10       2666.0000000        2725.2409668       -59.240966797    
 253-61-61       2650.0000000        2703.2570801       -53.257080078    
 253-66-61       2644.0000000        2697.6665039       -53.666503906    
 248-38-5        3160.0000000        3114.7094727        45.290527344    
 248-42-337      3166.0000000        3122.8801270        43.119873047    
 248-48-337      3163.0000000        3056.7131348        106.28686523    
 241-48-337      2702.0000000        2747.9421387       -45.942138672    
 241-56-10       2707.0000000        2737.2312012       -30.231201172    
 241-61-61       2686.0000000        2716.0666504       -30.066650391    
 241-66-61       2675.0000000        2709.0898438       -34.089843750    
 229-48-337      2738.0000000        2755.6689453       -17.668945312    
 229-56-11       2746.0000000        2746.1684570      -0.16845703125    
 242-38-4        2809.0000000        2831.2463379       -22.246337891    
 242-42-337      2781.0000000        2804.2834473       -23.283447266    
 243-56-10       2838.0000000        2782.8698730        55.130126953    
 238-56-10       2830.0000000        2781.6652832        48.334716797    
 235-56-10       2846.0000000        2785.6745605        60.325439453    
 228-38-5        2831.0000000        2844.7763672       -13.776367188    
 228-42-348      2788.0000000        2810.7580566       -22.758056641    
 228-48-337      2776.0000000        2775.0895996       0.91040039062    
 230-48-337      2783.0000000        2779.5891113        3.4108886719    
 230-56-10       2815.0000000        2784.1892090        30.810791016    
 232-31-335      2744.0000000        2769.7473145       -25.747314453    
 232-37-361      2729.0000000        2760.1870117       -31.187011719    
 232-48-337      2731.0000000        2743.6147461       -12.614746094    
 232-56-9        2734.0000000        2731.9594727        2.0405273438    
 232-61-62       2717.0000000        2714.7407227        2.2592773438    
 232-66-47       2700.0000000        2706.1093750       -6.1093750000    
 232-71-35       2670.0000000        2696.1867676       -26.186767578    
 237-17-5        2766.0000000        2786.8293457       -20.829345703    
 237-27-11       2752.0000000        2757.5520020       -5.5520019531    
 237-37-357      2710.0000000        2739.9665527       -29.966552734    
 237-42-355      2690.0000000        2724.9182129       -34.918212891    
 237-48-335      2716.0000000        2729.5917969       -13.591796875    
 237-56-11       2716.0000000        2716.8881836      -0.88818359375    
 237-61-60       2699.0000000        2702.1347656       -3.1347656250    
 237-66-48       2684.0000000        2692.0944824       -8.0944824219    
 237-71-34       2664.0000000        2683.0847168       -19.084716797    
 239-1-365       2805.0000000        2808.5246582       -3.5246582031    
 239-42-355      2688.0000000        2711.0214844       -23.021484375    
 240-22-1        2744.0000000        2758.5427246       -14.542724609    
 240-38-7        2714.0000000        2727.8684082       -13.868408203    
 240-48-335      2719.0000000        2722.1394043       -3.1394042969    
 240-56-10       2718.0000000        2709.4526367        8.5473632812    
 240-66-48       2686.0000000        2684.5744629        1.4255371094    
 240-71-34       2661.0000000        2675.8220215       -14.822021484    
 231-48-335      2732.0000000        2730.8505859        1.1494140625    
 231-56-10       2732.0000000        2717.8269043        14.173095703    
 233-17-5        2781.0000000        2783.4604492       -2.4604492188    
 233-38-7        2712.0000000        2732.0905762       -20.090576172    
 233-42-355      2695.0000000        2717.9748535       -22.974853516    
 234-42-355      2694.0000000        2723.4514160       -29.451416016    
 234-48-335      2714.0000000        2729.9226074       -15.922607422    
 234-56-10       2718.0000000        2716.9831543        1.0168457031    
 234-60-322      2701.0000000        2703.7624512       -2.7624511719    
 234-66-48       2688.0000000        2693.2082520       -5.2082519531    
 234-71-34       2667.0000000        2684.2883301       -17.288330078    
 213-1-310       2835.0000000        2833.0112305        1.9887695312    
 213-6-310       2829.0000000        2824.8002930        4.1997070312    
 213-27-11       2792.0000000        2785.9902344        6.0097656250    
 213-42-355      2739.0000000        2751.2800293       -12.280029297    
 216-7-291       2818.0000000        2821.6582031       -3.6582031250    
 216-22-32       2787.0000000        2788.8801270       -1.8801269531    
 216-27-11       2793.0000000        2784.1704102        8.8295898438    
 216-38-7        2738.0000000        2760.9475098       -22.947509766    
 216-42-355      2732.0000000        2748.2573242       -16.257324219    
 210-1-365       2843.0000000        2838.1025391        4.8974609375    
 210-38-7        2742.0000000        2767.6826172       -25.682617188    
 210-42-355      2745.0000000        2754.8574219       -9.8574218750    
 210-48-335      2770.0000000        2764.1408691        5.8591308594    
 210-56-11       2775.0000000        2753.2810059        21.718994141    
 189-17-6        2827.0000000        2832.8571777       -5.8571777344    
 189-22-54       2812.0000000        2818.8166504       -6.8166503906    
 189-27-11       2814.0000000        2817.2636719       -3.2636718750    
 189-38-7        2772.0000000        2783.5578613       -11.557861328    
 189-42-355      2762.0000000        2770.7692871       -8.7692871094    
 189-48-335      2793.0000000        2784.7033691        8.2966308594    
 189-56-9        2797.0000000        2773.6567383        23.343261719    
 189-61-60       2779.0000000        2761.5781250        17.421875000    
 189-66-48       2761.0000000        2750.5900879        10.409912109    
 189-71-34       2738.0000000        2741.6608887       -3.6608886719    
 200-38-7        2760.0000000        2771.3295898       -11.329589844    
 200-42-356      2747.0000000        2757.0749512       -10.074951172    
 200-48-335      2776.0000000        2762.6484375        13.351562500    
 200-56-9        2778.0000000        2752.3652344        25.634765625    
 200-61-60       2756.0000000        2738.4013672        17.598632812    
 200-66-48       2745.0000000        2728.4064941        16.593505859    
 201-38-7        2774.0000000        2778.5612793       -4.5612792969    
 201-42-356      2759.0000000        2760.1372070       -1.1372070312    
 201-48-335      2782.0000000        2762.1123047        19.887695312    
 201-56-11       2786.0000000        2753.0297852        32.970214844    
 201-61-60       2769.0000000        2735.9484863        33.051513672    
 201-66-48       2753.0000000        2725.6174316        27.382568359    
 201-71-34       2730.0000000        2717.1933594        12.806640625    
 199-17-5        2814.0000000        2821.2792969       -7.2792968750    
 199-22-54       2800.0000000        2807.5712891       -7.5712890625    
 199-27-11       2801.0000000        2802.9355469       -1.9355468750    
 199-38-7        2764.0000000        2782.9633789       -18.963378906    
 199-42-356      2749.0000000        2762.7783203       -13.778320312    
 199-48-335      2776.0000000        2762.4316406        13.568359375    
 217-38-5        2864.0000000        2855.8254395        8.1745605469    
 217-42-348      2813.0000000        2799.7617188        13.238281250    
 220-38-5        2851.0000000        2854.7055664       -3.7055664062    
 220-42-348      2800.0000000        2807.4064941       -7.4064941406    
 220-56-10       2804.0000000        2768.9094238        35.090576172    
 220-61-61       2795.0000000        2763.4589844        31.541015625    
 220-66-61       2776.0000000        2749.5285645        26.471435547    
 204-38-5        2852.0000000        2874.8144531       -22.814453125    
 204-42-348      2799.0000000        2814.9504395       -15.950439453    
 202-38-5        2854.0000000        2858.6450195       -4.6450195312    
 202-42-348      2802.0000000        2801.7565918       0.24340820312    
 198-39-190      2868.0000000        2853.7431641        14.256835938    
 194-39-138      2833.0000000        2845.6962891       -12.696289062    
 190-56-10       2810.0000000        2796.6269531        13.373046875    
 190-61-61       2802.0000000        2787.1994629        14.800537109    
 192-38-5        2853.0000000        2890.1918945       -37.191894531    
 192-42-337      2813.0000000        2845.8022461       -32.802246094    
 191-39-212      2856.0000000        2891.0666504       -35.066650391    
 193-38-5        2848.0000000        2873.3535156       -25.353515625    
 193-42-348      2815.0000000        2823.4372559       -8.4372558594    
 188-56-10       2883.0000000        2880.6030273        2.3969726562    
 188-61-61       2874.0000000        2869.0080566        4.9919433594    
 188-66-61       2864.0000000        2861.7158203        2.2841796875    
 187-56-10       2840.0000000        2850.9020996       -10.902099609    
 187-61-61       2840.0000000        2835.6791992        4.3208007812    
 187-66-62       2815.0000000        2828.5429688       -13.542968750    
 179-48-337      2866.0000000        2846.0524902        19.947509766    
 14-1-365        2884.0000000        2891.8937988       -7.8937988281    
 185-1-365       2853.0000000        2869.7104492       -16.710449219    
 185-10-60       2822.0000000        2858.7534180       -36.753417969    
 185-38-7        2754.0000000        2792.9726562       -38.972656250    
 185-42-355      2750.0000000        2777.8706055       -27.870605469    
 181-38-7        2780.0000000        2799.8330078       -19.833007812    
 181-48-335      2809.0000000        2797.4125977        11.587402344    
 181-56-11       2813.0000000        2788.2719727        24.728027344    
 181-61-60       2798.0000000        2781.0517578        16.948242188    
 181-66-48       2777.0000000        2773.4472656        3.5527343750    
 181-71-34       2755.0000000        2763.0939941       -8.0939941406    
 186-48-335      2805.0000000        2789.7863770        15.213623047    
 183-48-335      2811.0000000        2799.9177246        11.082275391    
 182-42-355      2777.0000000        2776.2778320       0.72216796875    
 182-48-335      2810.0000000        2793.8603516        16.139648438    
 182-56-9        2809.0000000        2782.7548828        26.245117188    
 182-61-60       2795.0000000        2772.6772461        22.322753906    
 182-66-48       2776.0000000        2762.3884277        13.611572266    
 182-71-34       2755.0000000        2753.1311035        1.8688964844    
 180-48-335      2822.0000000        2802.8688965        19.131103516    
 184-12-80       2841.0000000        2844.4816895       -3.4816894531    
 184-17-60       2837.0000000        2838.7233887       -1.7233886719    
 184-22-62       2827.0000000        2826.8049316       0.19506835938    
 184-27-6        2812.0000000        2824.3913574       -12.391357422    
 184-31-335      2811.0000000        2822.1684570       -11.168457031    
 184-37-32       2792.0000000        2800.3918457       -8.3918457031    
 184-42-299      2779.0000000        2783.0720215       -4.0720214844    
 184-48-337      2809.0000000        2792.2517090        16.748291016    
 184-56-12       2811.0000000        2782.3662109        28.633789062    
 184-66-55       2790.0000000        2764.2897949        25.710205078    
 305-56-11       2722.0000000        2659.7124023        62.287597656    
 305-61-61       2678.0000000        2645.1953125        32.804687500    
 305-66-32       2682.0000000        2633.7065430        48.293457031    
 325-37-344      2646.0000000        2639.7736816        6.2263183594    
 325-43-14       2634.0000000        2642.1157227       -8.1157226562    
 325-48-342      2649.0000000        2649.5559082      -0.55590820312    
 325-56-12       2656.0000000        2644.3232422        11.676757812    
 325-61-61       2621.0000000        2630.3369141       -9.3369140625    
 325-66-31       2611.0000000        2615.8999023       -4.8999023438    
 292-61-61       2675.0000000        2696.1894531       -21.189453125    
 296-26-321      2728.0000000        2736.0151367       -8.0151367188    
 296-31-335      2715.0000000        2727.1232910       -12.123291016    
 296-37-344      2709.0000000        2721.7209473       -12.720947266    
 296-43-14       2705.0000000        2715.9802246       -10.980224609    
 296-48-342      2701.0000000        2708.5341797       -7.5341796875    
 296-56-11       2697.0000000        2704.5461426       -7.5461425781    
 296-60-321      2692.0000000        2699.9257812       -7.9257812500    
 296-65-300      2686.0000000        2693.8417969       -7.8417968750    
 297-17-4        2731.0000000        2742.0966797       -11.096679688    
 297-22-54       2722.0000000        2728.5817871       -6.5817871094    
 297-27-11       2713.0000000        2715.9553223       -2.9553222656    
 297-56-12       2681.0000000        2684.1767578       -3.1767578125    
 297-61-61       2671.0000000        2677.2314453       -6.2314453125    
 297-66-32       2665.0000000        2667.9372559       -2.9372558594    
 272-33-177      2743.0000000        2741.3066406        1.6933593750    
 245-48-342      2722.0000000        2731.3249512       -9.3249511719    
 245-56-12       2719.0000000        2725.5505371       -6.5505371094    
 221-33-346      2759.0000000        2770.5878906       -11.587890625    
 222-48-343      2744.0000000        2749.1464844       -5.1464843750    
 222-56-9        2758.0000000        2741.0847168        16.915283203    
 222-61-60       2739.0000000        2730.7299805        8.2700195312    
 222-66-54       2735.0000000        2722.8576660        12.142333984    
 222-71-34       2721.0000000        2714.5002441        6.4997558594    
 223-48-343      2746.0000000        2747.9677734       -1.9677734375    
 223-56-9        2750.0000000        2739.8620605        10.137939453    
 223-61-60       2738.0000000        2729.4482422        8.5517578125    
 223-71-35       2720.0000000        2713.1875000        6.8125000000    
 219-71-365      2723.0000000        2723.1987305      -0.19873046875    
 102-43-8        2972.0000000        2996.7937012       -24.793701172    
 102-48-344      2995.0000000        3008.5305176       -13.530517578    
 92-71-40        2989.0000000        2999.7500000       -10.750000000    
 177-17-6        2858.0000000        2867.1437988       -9.1437988281    
 177-38-7        2790.0000000        2800.2451172       -10.245117188    
 177-42-355      2803.0000000        2789.2624512        13.737548828    
 177-48-335      2861.0000000        2812.9726562        48.027343750    
 169-38-4        2773.0000000        2811.2426758       -38.242675781    
 169-42-334      2779.0000000        2797.7512207       -18.751220703    
 169-56-11       2818.0000000        2809.2416992        8.7583007812    
 168-1-365       2887.0000000        2890.0727539       -3.0727539062    
 170-38-7        2782.0000000        2816.4907227       -34.490722656    
 170-42-355      2793.0000000        2799.5727539       -6.5727539062    
 170-48-335      2831.0000000        2819.5695801        11.430419922    
 170-56-9        2827.0000000        2809.2541504        17.745849609    
 170-61-60       2821.0000000        2805.1352539        15.864746094    
 170-66-48       2798.0000000        2793.6779785        4.3220214844    
 170-71-34       2780.0000000        2782.7993164       -2.7993164062    
 176-1-280       2880.0000000        2889.7705078       -9.7705078125    
 176-6-340       2875.0000000        2885.5437012       -10.543701172    
 176-11-333      2858.0000000        2879.2937012       -21.293701172    
 176-16-332      2862.0000000        2874.5358887       -12.535888672    
 176-38-7        2791.0000000        2814.7875977       -23.787597656    
 172-12-80       2883.0000000        2903.9267578       -20.926757812    
 172-17-60       2875.0000000        2897.2202148       -22.220214844    
 172-22-62       2868.0000000        2890.1584473       -22.158447266    
 172-27-6        2860.0000000        2887.0480957       -27.048095703    
 172-31-344      2859.0000000        2886.5815430       -27.581542969    
 172-36-335      2848.0000000        2870.5805664       -22.580566406    
 172-48-335      2848.0000000        2854.4423828       -6.4423828125    
 172-56-11       2853.0000000        2847.4704590        5.5295410156    
 172-61-59       2852.0000000        2845.0595703        6.9404296875    
 171-43-47       2829.0000000        2848.4753418       -19.475341797    
 171-48-335      2851.0000000        2854.4423828       -3.4423828125    
 171-56-11       2853.0000000        2847.4704590        5.5295410156    
 171-60-322      2853.0000000        2845.7407227        7.2592773438    
 171-65-298      2837.0000000        2839.8674316       -2.8674316406    
 171-71-13       2807.0000000        2812.1613770       -5.1613769531    
 164-33-152      2848.0000000        2892.3898926       -44.389892578    
 167-48-335      2864.0000000        2862.8364258        1.1635742188    
 167-56-11       2866.0000000        2857.1777344        8.8222656250    
 166-61-56       2871.0000000        2851.3022461        19.697753906    
 166-66-53       2858.0000000        2844.8522949        13.147705078    
 166-71-35       2829.0000000        2826.2824707        2.7175292969    
 178-48-336      2871.0000000        2877.5891113       -6.5891113281    
 178-56-11       2816.0000000        2873.5559082       -57.555908203    
 174-48-336      2870.0000000        2877.1638184       -7.1638183594    
 161-48-336      2887.0000000        2894.2683105       -7.2683105469    
 161-56-11       2895.0000000        2891.6687012        3.3312988281    
 161-61-56       2887.0000000        2887.4072266      -0.40722656250    
 161-66-54       2878.0000000        2882.1972656       -4.1972656250    
 161-71-41       2860.0000000        2870.1723633       -10.172363281    
 153-48-335      2915.0000000        2898.8791504        16.120849609    
 163-48-336      2902.0000000        2880.7006836        21.299316406    
 163-56-11       2903.0000000        2877.3352051        25.664794922    
 163-61-59       2896.0000000        2872.3298340        23.670166016    
 163-66-54       2886.0000000        2866.4909668        19.509033203    
 163-71-41       2865.0000000        2853.0380859        11.961914062    
 156-48-336      2913.0000000        2890.2849121        22.715087891    
 156-56-11       2916.0000000        2887.9741211        28.025878906    
 157-1-358       2927.0000000        2918.1977539        8.8022460938    
 157-22-54       2887.0000000        2900.2451172       -13.245117188    
 157-27-11       2885.0000000        2899.4284668       -14.428466797    
 157-31-348      2874.0000000        2892.8635254       -18.863525391    
 157-37-22       2831.0000000        2858.6901855       -27.690185547    
 157-43-47       2842.0000000        2845.3859863       -3.3859863281    
 157-48-335      2888.0000000        2868.7285156        19.271484375    
 157-56-9        2903.0000000        2862.7841797        40.215820312    
 157-60-322      2872.0000000        2857.2587891        14.741210938    
 157-65-298      2859.0000000        2849.2800293        9.7199707031    
 157-71-365      2824.0000000        2833.4470215       -9.4470214844    
 154-42-341      2833.0000000        2848.0261230       -15.026123047    
 159-38-4        2783.0000000        2837.4892578       -54.489257812    
 159-56-11       2840.0000000        2843.9238281       -3.9238281250    
 147-38-4        2820.0000000        2862.3095703       -42.309570312    
 147-42-334      2820.0000000        2859.7976074       -39.797607422    
 147-56-11       2889.0000000        2880.6906738        8.3093261719    
 149-1-280       2945.0000000        2933.1418457        11.858154297    
 150-48-335      2923.0000000        2895.3129883        27.687011719    
 150-56-9        2926.0000000        2894.6840820        31.315917969    
 137-48-335      2944.0000000        2915.1760254        28.823974609    
 137-56-9        2949.0000000        2914.9038086        34.096191406    
 137-61-56       2937.0000000        2903.2199707        33.780029297    
 137-66-53       2922.0000000        2897.5463867        24.453613281    
 136-38-4        2860.0000000        2880.3989258       -20.398925781    
 136-42-341      2880.0000000        2886.7087402       -6.7087402344    
 136-56-11       2894.0000000        2902.4655762       -8.4655761719    
 152-48-336      2949.0000000        2900.4279785        48.572021484    
 129-17-5        2953.0000000        2957.0417480       -4.0417480469    
 129-27-11       2944.0000000        2954.8239746       -10.823974609    
 123-42-348      2909.0000000        2926.5683594       -17.568359375    
 128-42-348      2921.0000000        2911.7260742        9.2739257812    
 128-56-11       2970.0000000        2935.2717285        34.728271484    
 133-12-362      2936.0000000        2939.4450684       -3.4450683594    
 133-17-61       2933.0000000        2939.0541992       -6.0541992188    
 133-27-6        2925.0000000        2934.0966797       -9.0966796875    
 133-31-335      2913.0000000        2928.5856934       -15.585693359    
 133-38-4        2866.0000000        2889.0505371       -23.050537109    
 133-42-341      2885.0000000        2887.1523438       -2.1523437500    
 133-48-335      2937.0000000        2910.8793945        26.120605469    
 133-56-9        2956.0000000        2910.2851562        45.714843750    
 133-71-365      2871.0000000        2882.1474609       -11.147460938    
 127-1-365       2959.0000000        2957.6005859        1.3994140625    
 127-17-1        2959.0000000        2953.2775879        5.7224121094    
 130-42-341      2915.0000000        2908.9436035        6.0563964844    
 130-48-335      2949.0000000        2925.8518066        23.148193359    
 130-56-9        2964.0000000        2924.4592285        39.540771484    
 126-27-11       2934.0000000        2951.4584961       -17.458496094    
 135-48-336      2897.0000000        2904.2309570       -7.2309570312    
 135-56-9        2902.0000000        2902.8176270      -0.81762695312    
 122-48-336      2920.0000000        2934.3994141       -14.399414062    
 120-12-310      2972.0000000        2978.9658203       -6.9658203125    
 120-17-5        2968.0000000        2978.5310059       -10.531005859    
 120-27-6        2963.0000000        2978.6347656       -15.634765625    
 120-31-335      2964.0000000        2976.1516113       -12.151611328    
 120-37-32       2931.0000000        2947.5478516       -16.547851562    
 120-42-341      2947.0000000        2953.5634766       -6.5634765625    
 120-48-336      2976.0000000        2974.9597168        1.0402832031    
 120-56-10       2983.0000000        2974.4685059        8.5314941406    
 120-61-59       2968.0000000        2966.0969238        1.9030761719    
 120-65-292      2963.0000000        2963.9909668      -0.99096679688    
 120-71-365      2938.0000000        2953.2307129       -15.230712891    
 118-38-4        2903.0000000        2950.2443848       -47.244384766    
 118-42-341      2933.0000000        2956.3442383       -23.344238281    
 118-48-349      2960.0000000        2963.4121094       -3.4121093750    
 118-56-10       2964.0000000        2953.2954102        10.704589844    
 107-27-69       2989.0000000        2990.1367188       -1.1367187500    
 114-48-336      2957.0000000        2976.0563965       -19.056396484    
 114-56-10       2966.0000000        2975.7338867       -9.7338867188    
 112-43-8        2956.0000000        2973.2800293       -17.280029297    
 112-48-335      2982.0000000        2990.4960938       -8.4960937500    
 112-56-9        2988.0000000        2993.5263672       -5.5263671875    
 112-61-52       2975.0000000        2984.9870605       -9.9870605469    
 112-66-45       2967.0000000        2980.7707520       -13.770751953    
 112-71-13       2956.0000000        2975.5280762       -19.528076172    
 104-60-299      2981.0000000        2999.0556641       -18.055664062    
 104-65-292      2974.0000000        2994.4902344       -20.490234375    
 100-22-61       2977.0000000        2993.5805664       -16.580566406    
 101-61-53       2981.0000000        3004.5397949       -23.539794922    
 97-22-54        2975.0000000        2997.1225586       -22.122558594    
 97-27-10        2963.0000000        3000.2673340       -37.267333984    
 98-43-8         2975.0000000        2994.1123047       -19.112304688    
 98-48-348       3003.0000000        3008.5883789       -5.5883789062    
 98-56-10        3007.0000000        3014.4682617       -7.4682617188    
 98-61-52        2997.0000000        3005.6193848       -8.6193847656    
 98-66-45        2989.0000000        2999.0322266       -10.032226562    
 105-43-69       2982.0000000        2977.9558105        4.0441894531    
 105-48-348      2993.0000000        2992.4326172       0.56738281250    
 105-56-10       3005.0000000        2995.1381836        9.8618164062    
 105-61-55       2989.0000000        2987.4565430        1.5434570312    
 105-66-45       2983.0000000        2983.2910156      -0.29101562500    
 99-5-1          2994.0000000        2997.1733398       -3.1733398438    
 106-56-10       2952.0000000        2974.3781738       -22.378173828    
 106-61-59       2947.0000000        2969.3784180       -22.378417969    
 106-66-45       2941.0000000        2967.8261719       -26.826171875    
 106-71-40       2928.0000000        2963.2873535       -35.287353516    
 95-71-40        2970.0000000        2995.0959473       -25.095947266    
 3393-25-338     1492.0000000        1543.7211914       -51.721191406    
 3312-25-338     1558.0000000        1577.4069824       -19.406982422    
 3288-25-341     1610.0000000        1603.6254883        6.3745117188    
 3282-25-341     1611.0000000        1624.0075684       -13.007568359    
 3259-25-341     1649.0000000        1668.0391846       -19.039184570    
 3222-25-229     1675.0000000        1703.7977295       -28.797729492    
 3213-25-337     1690.0000000        1695.8382568       -5.8382568359    
 3199-25-339     1687.0000000        1709.9234619       -22.923461914    
 3175-25-339     1683.0000000        1707.6311035       -24.631103516    
 3170-25-342     1701.0000000        1706.1750488       -5.1750488281    
 3200-25-336     1748.0000000        1770.2565918       -22.256591797    
 3154-25-336     1687.0000000        1728.6218262       -41.621826172    
 3138-25-336     1690.0000000        1737.1483154       -47.148315430    
 3046-25-344     1693.0000000        1738.3162842       -45.316284180    
 3036-25-344     1702.0000000        1739.7547607       -37.754760742    
 3038-25-339     1713.0000000        1768.4986572       -55.498657227    
 2684-25-3       1753.0000000        1773.4302979       -20.430297852    
 2919-25-351     1795.0000000        1833.9470215       -38.947021484    
 2719-25-113     2216.0000000        2186.4521484        29.547851562    
 1933-25-180     2246.0000000        2256.8435059       -10.843505859    
 1387-25-60      2343.0000000        2339.6213379        3.3786621094    
 1427-25-27      2341.0000000        2331.5637207        9.4362792969    
 1661-25-60      2359.0000000        2364.0561523       -5.0561523438    
 1390-25-365     2362.0000000        2345.3681641        16.631835938    
 1904-25-317     2511.0000000        2515.2873535       -4.2873535156    
 1379-25-91      2552.0000000        2575.2670898       -23.267089844    
 1796-25-321     2637.0000000        2623.9108887        13.089111328    
 1753-25-321     2623.0000000        2608.6682129        14.331787109    
 1705-25-328     2647.0000000        2654.0136719       -7.0136718750    
 1064-25-125     2385.0000000        2413.7646484       -28.764648438    
 831-25-335      2495.0000000        2498.5952148       -3.5952148438    
 1066-25-335     2783.0000000        2811.5270996       -28.527099609    
 723-25-363      2420.0000000        2391.2868652        28.713134766    
 568-25-307      2578.0000000        2567.8642578        10.135742188    
 544-25-309      2569.0000000        2578.0026855       -9.0026855469    
 780-25-329      2673.0000000        2545.6672363        127.33276367    
 526-25-307      2566.0000000        2581.4665527       -15.466552734    
 370-25-308      2652.0000000        2647.5070801        4.4929199219    
 265-25-7        2718.0000000        2731.3425293       -13.342529297    
 266-25-43       2692.0000000        2733.1137695       -41.113769531    
 232-25-314      2758.0000000        2774.5683594       -16.568359375    
 100-25-316      2977.0000000        2994.6545410       -17.654541016    
 3205-26-8       1660.0000000        1692.3345947       -32.334594727    
 3174-26-7       1673.0000000        1704.5329590       -31.532958984    
 3163-26-13      1681.0000000        1708.9628906       -27.962890625    
 3100-26-12      1686.0000000        1715.1923828       -29.192382812    
 3097-26-7       1674.0000000        1714.7679443       -40.767944336    
 3096-26-12      1693.0000000        1716.1341553       -23.134155273    
 3053-26-11      1688.0000000        1721.8558350       -33.855834961    
 3065-26-12      1701.0000000        1720.5761719       -19.576171875    
 3033-26-11      1699.0000000        1726.2052002       -27.205200195    
 2989-26-12      1709.0000000        1729.7264404       -20.726440430    
 3083-26-152     1700.0000000        1755.5228271       -55.522827148    
 3040-26-13      1692.0000000        1733.8306885       -41.830688477    
 2997-26-123     2239.0000000        2250.1269531       -11.126953125    
 3016-26-123     2282.0000000        2328.3071289       -46.307128906    
 2953-26-14      1718.0000000        1733.5941162       -15.594116211    
 2963-26-14      1715.0000000        1732.8795166       -17.879516602    
 2968-26-13      1779.0000000        1731.5593262        47.440673828    
 2906-26-13      1755.0000000        1742.7249756        12.275024414    
 2905-26-13      1726.0000000        1739.6492920       -13.649291992    
 2874-26-14      1767.0000000        1745.4617920        21.538208008    
 2780-26-13      1747.0000000        1756.9486084       -9.9486083984    
 2779-26-13      1763.0000000        1759.1611328        3.8388671875    
 2787-26-14      1788.0000000        1759.7592773        28.240722656    
 2790-26-14      1786.0000000        1763.2320557        22.767944336    
 2772-26-13      1750.0000000        1757.4942627       -7.4942626953    
 2639-26-13      1780.0000000        1776.4625244        3.5374755859    
 2974-26-15      1784.0000000        1818.3867188       -34.386718750    
 2937-26-14      1785.0000000        1810.4378662       -25.437866211    
 2885-26-14      1764.0000000        1766.7530518       -2.7530517578    
 2867-26-14      1706.0000000        1756.8572998       -50.857299805    
 2837-26-14      1710.0000000        1748.9636230       -38.963623047    
 2748-26-15      1763.0000000        1757.4674072        5.5325927734    
 2694-26-15      1833.0000000        1770.8365479        62.163452148    
 2933-26-15      1711.0000000        1739.0344238       -28.034423828    
 2851-26-14      1742.0000000        1741.9908447       9.15527343750E-03
 2711-26-15      1803.0000000        1768.7288818        34.271118164    
 2928-26-18      1795.0000000        1865.8919678       -70.891967773    
 2811-26-14      1815.0000000        1826.6748047       -11.674804688    
 2808-26-18      1802.0000000        1833.5849609       -31.584960938    
 2766-26-47      2059.0000000        2071.3840332       -12.384033203    
 2789-26-18      1813.0000000        1837.9379883       -24.937988281    
 2696-26-18      2033.0000000        2058.7145996       -25.714599609    
 2977-26-123     2364.0000000        2370.0529785       -6.0529785156    
 2914-26-120     2139.0000000        2121.4165039        17.583496094    
 2930-26-123     2338.0000000        2344.4892578       -6.4892578125    
 2898-26-120     2134.0000000        2115.2368164        18.763183594    
 2841-26-120     2191.0000000        2212.3503418       -21.350341797    
 2774-26-120     2200.0000000        2185.7727051        14.227294922    
 2762-26-26      2162.0000000        2168.3103027       -6.3103027344    
 2733-26-1       2092.0000000        2119.7102051       -27.710205078    
 2742-26-26      2135.0000000        2143.3315430       -8.3315429688    
 2670-26-18      2129.0000000        2145.6320801       -16.632080078    
 2660-26-120     2188.0000000        2178.2902832        9.7097167969    
 2931-26-22      2410.0000000        2444.9558105       -34.955810547    
 2595-26-12      1779.0000000        1783.6890869       -4.6890869141    
 2596-26-1       1776.0000000        1780.8098145       -4.8098144531    
 2589-26-11      1776.0000000        1781.4348145       -5.4348144531    
 2588-26-1       1774.0000000        1782.6538086       -8.6538085938    
 2564-26-12      1779.0000000        1785.6796875       -6.6796875000    
 2529-26-12      1789.0000000        1798.6074219       -9.6074218750    
 2449-26-11      1828.0000000        1827.7347412       0.26525878906    
 2492-26-13      1813.0000000        1807.5078125        5.4921875000    
 2452-26-12      1795.0000000        1809.8681641       -14.868164062    
 2303-26-1       1795.0000000        1823.3645020       -28.364501953    
 2296-26-12      1805.0000000        1822.4976807       -17.497680664    
 2301-26-14      1821.0000000        1825.6281738       -4.6281738281    
 2300-26-11      1839.0000000        1834.9619141        4.0380859375    
 2220-26-11      1844.0000000        1842.3818359        1.6181640625    
 2089-26-1       1825.0000000        1841.6287842       -16.628784180    
 2088-26-12      1831.0000000        1843.5560303       -12.556030273    
 2448-26-11      1837.0000000        1840.5120850       -3.5120849609    
 2099-26-1       1851.0000000        1855.5847168       -4.5847167969    
 1922-26-1       1870.0000000        1874.6402588       -4.6402587891    
 1983-26-11      1883.0000000        1888.1199951       -5.1199951172    
 1930-26-14      1888.0000000        1920.1696777       -32.169677734    
 2649-26-27      2098.0000000        2101.9045410       -3.9045410156    
 2505-26-32      2152.0000000        2172.3024902       -20.302490234    
 2464-26-29      2151.0000000        2178.0229492       -27.022949219    
 2388-26-32      2173.0000000        2200.5393066       -27.539306641    
 2412-26-20      2232.0000000        2250.8513184       -18.851318359    
 2289-26-29      2181.0000000        2206.8811035       -25.881103516    
 2236-26-19      2195.0000000        2212.2348633       -17.234863281    
 2183-26-29      2163.0000000        2209.1853027       -46.185302734    
 2215-26-104     2435.0000000        2421.1193848        13.880615234    
 2162-26-102     2323.0000000        2331.2048340       -8.2048339844    
 2130-26-69      2258.0000000        2263.5048828       -5.5048828125    
 1990-26-67      2274.0000000        2275.2546387       -1.2546386719    
 2103-26-67      2293.0000000        2291.6313477        1.3686523438    
 2055-26-102     2292.0000000        2296.0561523       -4.0561523438    
 1997-26-183     2331.0000000        2337.0959473       -6.0959472656    
 2339-26-104     2473.0000000        2492.1862793       -19.186279297    
 2100-26-117     2518.0000000        2522.6560059       -4.6560058594    
 2010-26-75      2379.0000000        2406.8493652       -27.849365234    
 1428-26-1       1959.0000000        1968.6228027       -9.6228027344    
 1383-26-8       2004.0000000        1983.4489746        20.551025391    
 1819-26-1       1912.0000000        1909.4909668        2.5090332031    
 1748-26-11      1915.0000000        1914.6004639       0.39953613281    
 1702-26-11      1892.0000000        1894.8708496       -2.8708496094    
 1710-26-1       1884.0000000        1897.6072998       -13.607299805    
 1663-26-1       1894.0000000        1902.3570557       -8.3570556641    
 1612-26-11      1921.0000000        1938.1097412       -17.109741211    
 1407-26-11      1992.0000000        1978.5977783        13.402221680    
 1364-26-11      1996.0000000        1984.8753662        11.124633789    
 1266-26-8       2015.0000000        2011.5815430        3.4184570312    
 1336-26-11      2008.0000000        2000.7208252        7.2791748047    
 1337-26-11      2002.0000000        1990.1364746        11.863525391    
 1264-26-1       2006.0000000        2008.7642822       -2.7642822266    
 1849-26-40      2254.0000000        2271.4025879       -17.402587891    
 1832-26-40      2225.0000000        2246.1672363       -21.167236328    
 1690-26-33      2246.0000000        2268.9482422       -22.948242188    
 1691-26-1       2240.0000000        2262.6120605       -22.612060547    
 1417-26-60      2352.0000000        2331.9592285        20.040771484    
 1386-26-34      2348.0000000        2338.6459961        9.3540039062    
 1329-26-35      2350.0000000        2357.6271973       -7.6271972656    
 1278-26-33      2365.0000000        2366.4833984       -1.4833984375    
 1879-26-69      2338.0000000        2341.7097168       -3.7097167969    
 1811-26-68      2332.0000000        2329.2731934        2.7268066406    
 1837-26-60      2337.0000000        2338.1677246       -1.1677246094    
 1907-26-68      2328.0000000        2327.3652344       0.63476562500    
 1888-26-68      2311.0000000        2309.0607910        1.9392089844    
 1779-26-67      2313.0000000        2306.6115723        6.3884277344    
 1619-26-67      2340.0000000        2301.1899414        38.810058594    
 1723-26-60      2306.0000000        2306.2392578      -0.23925781250    
 1694-26-68      2322.0000000        2325.8776855       -3.8776855469    
 1658-26-67      2325.0000000        2317.6684570        7.3315429688    
 1655-26-69      2339.0000000        2339.1977539      -0.19775390625    
 1614-26-69      2341.0000000        2337.1982422        3.8017578125    
 1596-26-69      2343.0000000        2345.2585449       -2.2585449219    
 1630-26-69      2351.0000000        2354.0004883       -3.0004882812    
 1552-26-74      2343.0000000        2334.9340820        8.0659179688    
 1467-26-76      2341.0000000        2318.1640625        22.835937500    
 1470-26-74      2328.0000000        2324.5932617        3.4067382812    
 1455-26-81      2338.0000000        2325.5207520        12.479248047    
 1443-26-81      2342.0000000        2327.6958008        14.304199219    
 1465-26-74      2337.0000000        2327.7822266        9.2177734375    
 1440-26-74      2343.0000000        2336.6413574        6.3586425781    
 1474-26-75      2350.0000000        2349.1000977       0.89990234375    
 1453-26-71      2351.0000000        2345.2802734        5.7197265625    
 1488-26-70      2350.0000000        2374.8759766       -24.875976562    
 1502-26-71      2352.0000000        2368.6987305       -16.698730469    
 1477-26-60      2354.0000000        2368.8430176       -14.843017578    
 1458-26-153     2351.0000000        2375.7753906       -24.775390625    
 1429-26-71      2371.0000000        2384.4323730       -13.432373047    
 1397-26-71      2361.0000000        2359.0852051        1.9147949219    
 1416-26-76      2364.0000000        2332.7436523        31.256347656    
 1312-26-88      2410.0000000        2374.5478516        35.452148438    
 1359-26-82      2387.0000000        2404.6264648       -17.626464844    
 1333-26-82      2391.0000000        2410.9458008       -19.945800781    
 1295-26-84      2407.0000000        2430.0649414       -23.064941406    
 1892-26-193     2511.0000000        2533.6210938       -22.621093750    
 1940-26-109     2485.0000000        2486.7287598       -1.7287597656    
 1659-26-71      2364.0000000        2393.6989746       -29.698974609    
 1671-26-60      2365.0000000        2385.1250000       -20.125000000    
 1627-26-70      2374.0000000        2391.1855469       -17.185546875    
 1677-26-83      2490.0000000        2485.3579102        4.6420898438    
 1602-26-83      2397.0000000        2470.2148438       -73.214843750    
 1604-26-83      2484.0000000        2483.6589355       0.34106445312    
 1669-26-109     2529.0000000        2551.2822266       -22.282226562    
 1622-26-109     2528.0000000        2548.2326660       -20.232666016    
 1553-26-88      2529.0000000        2523.0258789        5.9741210938    
 1563-26-88      2526.0000000        2510.5107422        15.489257812    
 1586-26-84      2483.0000000        2488.5419922       -5.5419921875    
 1507-26-75      2376.0000000        2414.3181152       -38.318115234    
 1495-26-60      2377.0000000        2418.6435547       -41.643554688    
 1484-26-75      2370.0000000        2412.1691895       -42.169189453    
 1489-26-88      2488.0000000        2491.9821777       -3.9821777344    
 1464-26-88      2529.0000000        2505.6201172        23.379882812    
 1414-26-95      2547.0000000        2582.6110840       -35.611083984    
 1395-26-88      2457.0000000        2465.3645020       -8.3645019531    
 1377-26-83      2461.0000000        2466.7561035       -5.7561035156    
 1375-26-88      2509.0000000        2496.4985352        12.501464844    
 1396-26-70      2427.0000000        2435.2365723       -8.2365722656    
 1415-26-84      2403.0000000        2414.6320801       -11.632080078    
 1300-26-213     2560.0000000        2571.6589355       -11.658935547    
 1276-26-95      2557.0000000        2603.9172363       -46.917236328    
 1354-26-95      2713.0000000        2684.2255859        28.774414062    
 1358-26-95      2714.0000000        2673.1335449        40.866455078    
 846-26-13       2358.0000000        2360.6887207       -2.6887207031    
 833-26-13       2354.0000000        2343.9489746        10.051025391    
 827-26-13       2353.0000000        2333.6464844        19.353515625    
 845-26-13       2306.0000000        2278.9743652        27.025634766    
 1105-26-118     2038.0000000        2063.3786621       -25.378662109    
 1120-26-13      2034.0000000        2068.0676270       -34.067626953    
 1088-26-91      2090.0000000        2074.0197754        15.980224609    
 809-26-13       2198.0000000        2202.7414551       -4.7414550781    
 1235-26-36      2364.0000000        2368.3571777       -4.3571777344    
 1239-26-33      2364.0000000        2365.9372559       -1.9372558594    
 1227-26-33      2367.0000000        2373.5200195       -6.5200195312    
 1219-26-36      2358.0000000        2373.7897949       -15.789794922    
 1168-26-35      2377.0000000        2386.8503418       -9.8503417969    
 1140-26-35      2383.0000000        2395.2490234       -12.249023438    
 1160-26-36      2371.0000000        2394.4965820       -23.496582031    
 1121-26-36      2378.0000000        2406.2797852       -28.279785156    
 1080-26-36      2443.0000000        2424.9543457        18.045654297    
 1048-26-36      2445.0000000        2429.4565430        15.543457031    
 1075-26-36      2428.0000000        2420.0695801        7.9304199219    
 1016-26-36      2387.0000000        2429.8398438       -42.839843750    
 1011-26-36      2378.0000000        2433.2468262       -55.246826172    
 1083-26-35      2391.0000000        2408.8378906       -17.837890625    
 997-26-244      2404.0000000        2423.7985840       -19.798583984    
 910-26-166      2463.0000000        2458.2390137        4.7609863281    
 1212-26-64      2374.0000000        2420.3090820       -46.309082031    
 1131-26-349     2441.0000000        2415.9477539        25.052246094    
 1188-26-60      2481.0000000        2434.9169922        46.083007812    
 1076-26-341     2520.0000000        2489.9682617        30.031738281    
 1000-26-18      2522.0000000        2504.2761230        17.723876953    
 1095-26-18      2462.0000000        2451.8012695        10.198730469    
 1035-26-61      2488.0000000        2461.0830078        26.916992188    
 1037-26-60      2477.0000000        2442.9594727        34.040527344    
 878-26-60       2496.0000000        2476.4208984        19.579101562    
 1250-26-84      2437.0000000        2451.4321289       -14.432128906    
 1251-26-84      2433.0000000        2449.5131836       -16.513183594    
 1195-26-81      2500.0000000        2481.9187012        18.081298828    
 1110-26-62      2530.0000000        2514.3491211        15.650878906    
 1044-26-82      2565.0000000        2581.7492676       -16.749267578    
 1017-26-62      2545.0000000        2559.7155762       -14.715576172    
 973-26-95       2601.0000000        2634.6093750       -33.609375000    
 870-26-95       2615.0000000        2657.0280762       -42.028076172    
 3417-26-95      2627.0000000        2656.5476074       -29.547607422    
 1246-26-305     2722.0000000        2734.2502441       -12.250244141    
 1593-26-18      2766.0000000        2791.8945312       -25.894531250    
 757-26-141      2333.0000000        2382.8854980       -49.885498047    
 758-26-1        2395.0000000        2402.7551270       -7.7551269531    
 722-26-64       2443.0000000        2453.0771484       -10.077148438    
 737-26-1        2415.0000000        2427.7778320       -12.777832031    
 656-26-1        2498.0000000        2508.2756348       -10.275634766    
 602-26-1        2502.0000000        2527.9357910       -25.935791016    
 598-26-1        2492.0000000        2483.7458496        8.2541503906    
 720-26-1        2222.0000000        2254.2165527       -32.216552734    
 674-26-43       2549.0000000        2545.2937012        3.7062988281    
 673-26-49       2545.0000000        2557.1713867       -12.171386719    
 810-26-43       2512.0000000        2495.9260254        16.073974609    
 785-26-65       2582.0000000        2609.1499023       -27.149902344    
 681-26-96       2620.0000000        2634.1650391       -14.165039062    
 608-26-64       2631.0000000        2658.0439453       -27.043945312    
 559-26-60       2643.0000000        2684.9479980       -41.947998047    
 731-26-98       2678.0000000        2725.2792969       -47.279296875    
 683-26-91       2679.0000000        2719.6630859       -40.663085938    
 496-26-56       2578.0000000        2589.2744141       -11.274414062    
 408-26-46       2653.0000000        2693.9609375       -40.960937500    
 391-26-72       2685.0000000        2655.7368164        29.263183594    
 451-26-85       2697.0000000        2744.9855957       -47.985595703    
 477-26-63       2661.0000000        2651.9157715        9.0842285156    
 302-26-47       2680.0000000        2688.0446777       -8.0446777344    
 295-26-47       2724.0000000        2699.8347168        24.165283203    
 281-26-47       2687.0000000        2709.3681641       -22.368164062    
 270-26-41       2694.0000000        2724.4543457       -30.454345703    
 278-26-11       2716.0000000        2718.5212402       -2.5212402344    
 250-26-11       2727.0000000        2736.2866211       -9.2866210938    
 3333-27-99      1707.0000000        1727.9020996       -20.902099609    
 3176-27-347     1652.0000000        1694.5108643       -42.510864258    
 3055-27-126     2453.0000000        2509.5771484       -56.577148438    
 2747-27-253     2052.0000000        2083.0380859       -31.038085938    
 995-27-236      2110.0000000        2094.0451660        15.954833984    
 778-27-348      2610.0000000        2592.9208984        17.079101562    
 718-27-151      2631.0000000        2649.8361816       -18.836181641    
 3239-30-335     2915.0000000        2885.5878906        29.412109375    
 3181-30-185     2850.0000000        2844.4077148        5.5922851562    
 3211-30-274     2885.0000000        2916.3063965       -31.306396484    
 3189-30-181     2873.0000000        2861.7995605        11.200439453    
 3198-30-274     2910.0000000        2893.1992188        16.800781250    
 3192-30-274     2905.0000000        2891.9655762        13.034423828    
 3124-30-213     2790.0000000        2807.5539551       -17.553955078    
 2832-30-108     2015.0000000        2026.9868164       -11.986816406    
 2673-30-244     2073.0000000        2108.3205566       -35.320556641    
 2876-30-99      2185.0000000        2203.0000000       -18.000000000    
 2774-30-91      2193.0000000        2183.3000488        9.6999511719    
 2733-30-27      2093.0000000        2119.8789062       -26.878906250    
 2603-30-29      2118.0000000        2129.8227539       -11.822753906    
 2652-30-27      2115.0000000        2134.7148438       -19.714843750    
 2576-30-30      2130.0000000        2166.5620117       -36.562011719    
 2542-30-30      2154.0000000        2179.2148438       -25.214843750    
 2505-30-29      2150.0000000        2174.9858398       -24.985839844    
 2355-30-1       2157.0000000        2185.5769043       -28.576904297    
 2464-30-29      2154.0000000        2179.7631836       -25.763183594    
 2357-30-30      2173.0000000        2194.9760742       -21.976074219    
 2373-30-30      2161.0000000        2195.0122070       -34.012207031    
 2446-30-30      2180.0000000        2202.2553711       -22.255371094    
 2445-30-121     2188.0000000        2214.4306641       -26.430664062    
 2237-30-34      2202.0000000        2220.9033203       -18.903320312    
 2137-30-35      2201.0000000        2215.6120605       -14.612060547    
 2109-30-30      2196.0000000        2213.5700684       -17.570068359    
 2038-30-1       2202.0000000        2223.1025391       -21.102539062    
 2059-30-35      2212.0000000        2224.1770020       -12.177001953    
 2227-30-273     2279.0000000        2274.0007324        4.9992675781    
 2056-30-18      2281.0000000        2266.8110352        14.188964844    
 2019-30-111     2276.0000000        2269.1699219        6.8300781250    
 1998-30-244     2298.0000000        2310.7275391       -12.727539062    
 2086-30-14      2348.0000000        2343.2014160        4.7985839844    
 2069-30-244     2359.0000000        2363.2490234       -4.2490234375    
 2081-30-105     2369.0000000        2353.3437500        15.656250000    
 2246-30-335     2440.0000000        2494.5791016       -54.579101562    
 2001-30-305     2546.0000000        2535.5017090        10.498291016    
 1617-30-121     2310.0000000        2285.4479980        24.552001953    
 1391-30-43      2344.0000000        2336.4692383        7.5307617188    
 1427-30-11      2340.0000000        2336.2185059        3.7814941406    
 1400-30-42      2345.0000000        2339.7253418        5.2746582031    
 1619-30-57      2328.0000000        2296.6933594        31.306640625    
 1693-30-51      2339.0000000        2343.3923340       -4.3923339844    
 1500-30-56      2304.0000000        2312.2836914       -8.2836914062    
 1312-30-349     2406.0000000        2363.0971680        42.902832031    
 1874-30-1       2575.0000000        2578.2053223       -3.2053222656    
 1857-30-157     2523.0000000        2527.6657715       -4.6657714844    
 1843-30-213     2506.0000000        2507.7138672       -1.7138671875    
 1846-30-43      2486.0000000        2459.3173828        26.682617188    
 1676-30-79      2516.0000000        2505.9536133        10.046386719    
 1574-30-246     2530.0000000        2542.6999512       -12.699951172    
 1368-30-60      2431.0000000        2437.2182617       -6.2182617188    
 1366-30-43      2461.0000000        2463.4250488       -2.4250488281    
 1348-30-43      2520.0000000        2507.0588379        12.941162109    
 1320-30-335     2645.0000000        2587.7529297        57.247070312    
 1276-30-121     2559.0000000        2604.1706543       -45.170654297    
 1751-30-305     2638.0000000        2637.6105957       0.38940429688    
 1752-30-305     2582.0000000        2589.9484863       -7.9484863281    
 1749-30-305     2565.0000000        2581.8449707       -16.844970703    
 1754-30-130     2612.0000000        2600.7895508        11.210449219    
 812-30-6        2350.0000000        2365.1423340       -15.142333984    
 1235-30-43      2363.0000000        2370.5270996       -7.5270996094    
 1197-30-43      2463.0000000        2413.1879883        49.812011719    
 1187-30-182     2476.0000000        2427.2167969        48.783203125    
 1194-30-1       2495.0000000        2466.2678223        28.732177734    
 529-30-351      2510.0000000        2539.0275879       -29.027587891    
 686-30-127      2532.0000000        2531.6008301       0.39916992188    
 488-30-44       2517.0000000        2566.4855957       -49.485595703    
 485-30-351      2554.0000000        2566.4426270       -12.442626953    
 476-30-60       2570.0000000        2576.9636230       -6.9636230469    
 408-30-349      2630.0000000        2694.3571777       -64.357177734    
 402-30-213      2615.0000000        2651.2612305       -36.261230469    
 366-30-42       2663.0000000        2665.1577148       -2.1577148438    
 301-30-342      2660.0000000        2688.7451172       -28.745117188    
 270-30-342      2667.0000000        2718.0183105       -51.018310547    
 3376-31-2       1547.0000000        1569.9962158       -22.996215820    
 3351-31-101     1629.0000000        1640.1973877       -11.197387695    
 3272-31-104     2957.0000000        2921.6413574        35.358642578    
 3145-31-193     1750.0000000        1690.4605713        59.539428711    
 3161-31-244     1725.0000000        1697.8933105        27.106689453    
 3038-31-1       1696.0000000        1754.3546143       -58.354614258    
 3243-31-1       2895.0000000        2887.9516602        7.0483398438    
 3256-31-104     2929.0000000        2887.8510742        41.148925781    
 3208-31-273     2890.0000000        2854.2919922        35.708007812    
 3153-31-348     2821.0000000        2815.4594727        5.5405273438    
 3164-31-283     2845.0000000        2841.8686523        3.1313476562    
 3093-31-104     2691.0000000        2738.1496582       -47.149658203    
 2787-31-57      1715.0000000        1728.4393311       -13.439331055    
 2734-31-1       1719.0000000        1727.1375732       -8.1375732422    
 2823-31-196     1708.0000000        1720.3768311       -12.376831055    
 2927-31-29      1953.0000000        1944.3804932        8.6195068359    
 2743-31-220     2083.0000000        2093.6616211       -10.661621094    
 2756-31-252     2034.0000000        2068.1435547       -34.143554688    
 2699-31-1       2064.0000000        2092.4616699       -28.461669922    
 2687-31-266     2081.0000000        2086.0256348       -5.0256347656    
 2615-31-1       1813.0000000        1805.6590576        7.3409423828    
 2650-31-60      2101.0000000        2091.8203125        9.1796875000    
 2558-31-121     2120.0000000        2136.8774414       -16.877441406    
 2475-31-120     2142.0000000        2182.5058594       -40.505859375    
 2460-31-120     2159.0000000        2185.6125488       -26.612548828    
 2427-31-120     2172.0000000        2200.2395020       -28.239501953    
 2326-31-121     2234.0000000        2236.3720703       -2.3720703125    
 2212-31-121     2209.0000000        2217.1013184       -8.1013183594    
 1991-31-36      2203.0000000        2223.5815430       -20.581542969    
 1958-31-36      2205.0000000        2228.3281250       -23.328125000    
 2057-31-121     2211.0000000        2227.3940430       -16.394042969    
 1951-31-36      2239.0000000        2252.1274414       -13.127441406    
 2014-31-121     2308.0000000        2282.9477539        25.052246094    
 1974-31-120     2295.0000000        2284.5375977        10.462402344    
 2102-31-119     2325.0000000        2333.8632812       -8.8632812500    
 2054-31-91      2321.0000000        2327.0903320       -6.0903320312    
 2339-31-78      2474.0000000        2493.4504395       -19.450439453    
 2330-31-196     2520.0000000        2560.9567871       -40.956787109    
 2100-31-78      2521.0000000        2522.6965332       -1.6965332031    
 2043-31-211     2485.0000000        2485.0603027      -6.03027343750E-02
 1849-31-1       2249.0000000        2261.9916992       -12.991699219    
 1471-31-113     2330.0000000        2316.3979492        13.602050781    
 1461-31-40      2308.0000000        2316.8229980       -8.8229980469    
 1321-31-40      2335.0000000        2350.1787109       -15.178710938    
 1306-31-113     2337.0000000        2350.9130859       -13.913085938    
 1307-31-113     2342.0000000        2350.7297363       -8.7297363281    
 1305-31-121     2345.0000000        2352.8891602       -7.8891601562    
 1886-31-119     2327.0000000        2332.3176270       -5.3176269531    
 1879-31-119     2322.0000000        2325.3142090       -3.3142089844    
 1779-31-119     2295.0000000        2292.5417480        2.4582519531    
 1724-31-118     2294.0000000        2290.8100586        3.1899414062    
 1694-31-119     2307.0000000        2310.0007324       -3.0007324219    
 1695-31-120     2314.0000000        2307.4487305        6.5512695312    
 1596-31-119     2320.0000000        2330.1804199       -10.180419922    
 1683-31-68      2347.0000000        2359.2019043       -12.201904297    
 1552-31-117     2327.0000000        2324.2756348        2.7243652344    
 1533-31-118     2316.0000000        2310.2753906        5.7246093750    
 1813-31-117     2308.0000000        2308.3950195      -0.39501953125    
 1538-31-117     2310.0000000        2306.0046387        3.9953613281    
 1470-31-117     2313.0000000        2316.5556641       -3.5556640625    
 1453-31-117     2336.0000000        2338.0808105       -2.0808105469    
 1502-31-120     2339.0000000        2363.1083984       -24.108398438    
 1416-31-62      2338.0000000        2325.8369141        12.163085938    
 1784-31-148     2366.0000000        2381.7158203       -15.715820312    
 1659-31-114     2355.0000000        2382.5290527       -27.529052734    
 1671-31-114     2350.0000000        2370.1352539       -20.135253906    
 1602-31-114     2371.0000000        2459.8481445       -88.848144531    
 1507-31-114     2358.0000000        2400.4421387       -42.442138672    
 1514-31-114     2349.0000000        2387.2858887       -38.285888672    
 1495-31-69      2358.0000000        2404.6604004       -46.660400391    
 1484-31-114     2348.0000000        2398.0422363       -50.042236328    
 1483-31-114     2436.0000000        2464.2026367       -28.202636719    
 1239-31-113     2352.0000000        2363.0288086       -11.028808594    
 1234-31-113     2349.0000000        2360.8264160       -11.826416016    
 1099-31-117     2361.0000000        2415.0329590       -54.032958984    
 853-31-118      2482.0000000        2466.2443848        15.755615234    
 720-31-1        2221.0000000        2252.0095215       -31.009521484    
 729-31-118      2508.0000000        2514.2377930       -6.2377929688    
 679-31-118      2516.0000000        2526.6281738       -10.628173828    
 810-31-118      2479.0000000        2481.4499512       -2.4499511719    
 299-31-59       2671.0000000        2695.8557129       -24.855712891    
 3281-32-351     1586.0000000        1625.1401367       -39.140136719    
 3347-32-97      2965.0000000        2958.3918457        6.6081542969    
 3051-32-152     1691.0000000        1693.3378906       -2.3378906250    
 3004-32-94      2011.0000000        2005.8521729        5.1478271484    
 2997-32-94      2234.0000000        2250.4008789       -16.400878906    
 3016-32-94      2280.0000000        2330.5100098       -50.510009766    
 3055-32-94      2452.0000000        2514.4731445       -62.473144531    
 2880-32-95      2083.0000000        2072.9140625        10.085937500    
 2883-32-196     2011.0000000        2028.9804688       -17.980468750    
 2977-32-96      2361.0000000        2373.3999023       -12.399902344    
 2914-32-96      2130.0000000        2118.2612305        11.738769531    
 2930-32-96      2337.0000000        2343.7062988       -6.7062988281    
 2869-32-96      2320.0000000        2333.3144531       -13.314453125    
 2898-32-96      2125.0000000        2112.1699219        12.830078125    
 2841-32-96      2182.0000000        2203.0678711       -21.067871094    
 2742-32-95      2130.0000000        2139.6523438       -9.6523437500    
 2956-32-95      2527.0000000        2523.3359375        3.6640625000    
 2441-32-216     1804.0000000        1774.3298340        29.670166016    
 2477-32-137     1798.0000000        1797.9592285       4.07714843750E-02
 2334-32-335     2382.0000000        2385.6811523       -3.6811523438    
 2314-32-342     2365.0000000        2356.6027832        8.3972167969    
 2331-32-29      2480.0000000        2530.8696289       -50.869628906    
 2128-32-154     2478.0000000        2445.4018555        32.598144531    
 2092-32-154     2468.0000000        2438.6984863        29.301513672    
 2085-32-154     2448.0000000        2474.0976562       -26.097656250    
 1278-32-50      2361.0000000        2358.1296387        2.8703613281    
 1791-32-119     2331.0000000        2336.5517578       -5.5517578125    
 1131-32-62      2436.0000000        2406.4086914        29.591308594    
 1035-32-71      2477.0000000        2444.9404297        32.059570312    
 2799-35-122     1998.0000000        2030.9807129       -32.980712891    
 861-35-329      2230.0000000        2159.4445801        70.555419922    
 3038-36-52      1680.0000000        1742.1185303       -62.118530273    
 2937-36-86      1764.0000000        1790.2164307       -26.216430664    
 1428-36-91      1955.0000000        1938.4428711        16.557128906    
 1106-36-164     2031.0000000        2046.3115234       -15.311523438    
 727-36-333      2585.0000000        2607.7324219       -22.732421875    
 492-36-108      2478.0000000        2511.7497559       -33.749755859    
 380-36-78       2594.0000000        2473.5026855        120.49731445    
 3318-37-364     1613.0000000        1650.1519775       -37.151977539    
 2476-37-182     2165.0000000        2190.9274902       -25.927490234    
 2437-37-1       2175.0000000        2197.8828125       -22.882812500    
 1436-37-201     2321.0000000        2333.1450195       -12.145019531    
 974-37-342      2328.0000000        2407.4829102       -79.482910156    
 981-37-84       2562.0000000        2593.0910645       -31.091064453    
 814-37-58       2570.0000000        2600.9211426       -30.921142578    
 697-37-41       2615.0000000        2659.7788086       -44.778808594    
 659-37-16       2662.0000000        2622.1848145        39.815185547    

 SUM OF SQUARED DIFFERENCE:    7.99625E+06

 Run end date and time (yyyy/mm/dd hh:mm:ss): 2015/01/26  9:19:39
 Elapsed run time: 55.299 Seconds

