                                  MODFLOW-NWT-SWR1 
      U.S. GEOLOGICAL SURVEY MODULAR FINITE-DIFFERENCE GROUNDWATER-FLOW MODEL
                            VERSION 1.0.9 07/01/2014
                    BASED ON MODFLOW-2005 VERSION 1.11.00 08/30/2013

 LIST FILE: H:\MODELS\TUCSON\2010_MODEL\results\xmd_solution.lst
                         UNIT   30

 OPENING H:\MODFLOW\POST\4010.hds
 FILE TYPE:DATA   UNIT   31   STATUS:UNKNOWN
 FORMAT:FORMATTED              ACCESS:SEQUENTIAL          

 OPENING H:\MODELS\TUCSON\2010_MODEL\RESULTS\graphs.out
 FILE TYPE:DATA(BINARY)   UNIT   33   STATUS:UNKNOWN
 FORMAT:BINARY                 ACCESS:SEQUENTIAL          

 OPENING H:\MODELS\TUCSON\2010_MODEL\RESULTS\hobs.dat
 FILE TYPE:DATA   UNIT   34   STATUS:UNKNOWN
 FORMAT:FORMATTED              ACCESS:SEQUENTIAL          

 OPENING H:\MODELS\TUCSON\2010_MODEL\RESULTS\lost_pumpage.dat
 FILE TYPE:DATA   UNIT   35   STATUS:UNKNOWN
 FORMAT:FORMATTED              ACCESS:SEQUENTIAL          

 OPENING H:\MODFLOW\zonebud\zonebud3\bin\cbc.bgt
 FILE TYPE:DATA(BINARY)   UNIT   39   STATUS:UNKNOWN
 FORMAT:BINARY                 ACCESS:SEQUENTIAL          
#                                                                                                                                                                                                                                                                                                           
#  Observation files                                                                                                                                                                                                                                                                                        
#                                                                                                                                                                                                                                                                                                           

 OPENING H:\MODELS\TUCSON\2010_MODEL\BIN\tuc2011d.hob
 FILE TYPE:HOB   UNIT    8   STATUS:OLD    
 FORMAT:FORMATTED              ACCESS:SEQUENTIAL          

 OPENING H:\MODELS\TUCSON\2010_MODEL\BIN\tuchyd93.hyd
 FILE TYPE:HYD   UNIT    9   STATUS:OLD    
 FORMAT:FORMATTED              ACCESS:SEQUENTIAL          
#                                                                                                                                                                                                                                                                                                           
#  Parameter Files                                                                                                                                                                                                                                                                                          

 OPENING H:\MODELS\TUCSON\2010_MODEL\BIN\tuc1940q1.dis
 FILE TYPE:DIS   UNIT   10   STATUS:OLD    
 FORMAT:FORMATTED              ACCESS:SEQUENTIAL          

 OPENING H:\MODELS\TUCSON\2010_MODEL\BIN\tuc1940z.bas
 FILE TYPE:BAS6   UNIT   11   STATUS:OLD    
 FORMAT:FORMATTED              ACCESS:SEQUENTIAL          

 OPENING H:\MODELS\TUCSON\2010_MODEL\BIN\tuc1940t.upw
 FILE TYPE:UPW   UNIT   12   STATUS:OLD    
 FORMAT:FORMATTED              ACCESS:SEQUENTIAL          
                                                                                                                                                                                                                                   
#  Stress Files                                                                                                                                                                                                                                                                                             

 OPENING H:\MODELS\TUCSON\2010_MODEL\BIN\tuc2010q10.wel
 FILE TYPE:WEL   UNIT   13   STATUS:OLD    
 FORMAT:FORMATTED              ACCESS:SEQUENTIAL          

 OPENING H:\MODELS\TUCSON\2010_MODEL\BIN\TUC1940d.EVT
 FILE TYPE:EVT   UNIT   14   STATUS:OLD    
 FORMAT:FORMATTED              ACCESS:SEQUENTIAL          

 OPENING H:\MODELS\TUCSON\2010_MODEL\BIN\tuc2010a3.chd
 FILE TYPE:CHD   UNIT   15   STATUS:OLD    
 FORMAT:FORMATTED              ACCESS:SEQUENTIAL          

 OPENING H:\MODELS\TUCSON\2010_MODEL\BIN\tuc2010n1.rch
 FILE TYPE:RCH   UNIT   16   STATUS:OLD    
 FORMAT:FORMATTED              ACCESS:SEQUENTIAL          
#  Solver & Output Control                                                                                                                                                                                                                                                                                  

 OPENING H:\MODELS\TUCSON\2010_MODEL\BIN\xMD1.NWT
 FILE TYPE:NWT   UNIT   19   STATUS:OLD    
 FORMAT:FORMATTED              ACCESS:SEQUENTIAL          

 OPENING H:\MODELS\TUCSON\2010_MODEL\BIN\tuc4010a5.OC
 FILE TYPE:OC   UNIT   22   STATUS:OLD    
 FORMAT:FORMATTED              ACCESS:SEQUENTIAL          

 BAS -- BASIC PACKAGE, VERSION 7, 5/2/2005 INPUT READ FROM UNIT   11
 
 MODFLOW was compiled using mixed precision
 Precision of REAL variables:           6
 Precision of DOUBLE PRECISION variables:          15

 DISCRETIZATION INPUT DATA READ FROM UNIT   10
 # TUCSON AMA GROUNDWATER FLOW MODEL - 1940-2010 UPDATE
 # MODEL DISCRETIZATION FILE: 08/08/2012
 # STEADY-STATE - TRANSIENT PHASE: 1940-2008  LENGTH=FEET  TIME=DAYS
    3 LAYERS       130 ROWS       100 COLUMNS
   71 STRESS PERIOD(S) IN SIMULATION
 MODEL TIME UNIT IS DAYS
 MODEL LENGTH UNIT IS FEET
  Confining bed flag for each layer:
   0   0   0

                     DELR =   2640.00    

                     DELC =   2640.00    



           TOP ELEVATION OF LAYER 1
 READING ON UNIT   10 WITH FORMAT: (15F5.0)            



             MODEL LAYER BOTTOM EL. FOR LAYER   1
 READING ON UNIT   10 WITH FORMAT: (15F5.0)            



             MODEL LAYER BOTTOM EL. FOR LAYER   2
 READING ON UNIT   10 WITH FORMAT: (15F5.0)            



             MODEL LAYER BOTTOM EL. FOR LAYER   3
 READING ON UNIT   10 WITH FORMAT: (15F5.0)            


 STRESS PERIOD     LENGTH       TIME STEPS     MULTIPLIER FOR DELT    SS FLAG
 ----------------------------------------------------------------------------
        1         366.0000          1                    1.000         SS
        2         365.0000         12                    1.000         TR
        3         365.0000         12                    1.000         TR
        4         365.0000         12                    1.000         TR
        5         366.0000         12                    1.000         TR
        6         365.0000         12                    1.000         TR
        7         365.0000         12                    1.000         TR
        8         365.0000         12                    1.000         TR
        9         366.0000         12                    1.000         TR
       10         365.0000         12                    1.000         TR
       11         365.0000         12                    1.000         TR
       12         365.0000         12                    1.000         TR
       13         366.0000         12                    1.000         TR
       14         365.0000         12                    1.000         TR
       15         365.0000         12                    1.000         TR
       16         365.0000         12                    1.000         TR
       17         366.0000         12                    1.000         TR
       18         365.0000         12                    1.000         TR
       19         365.0000         12                    1.000         TR
       20         365.0000         12                    1.000         TR
       21         366.0000         12                    1.000         TR
       22         365.0000         12                    1.000         TR
       23         365.0000         12                    1.000         TR
       24         365.0000         12                    1.000         TR
       25         366.0000         12                    1.000         TR
       26         365.0000         12                    1.000         TR
       27         365.0000         12                    1.000         TR
       28         365.0000         12                    1.000         TR
       29         366.0000         12                    1.000         TR
       30         365.0000         12                    1.000         TR
       31         365.0000         12                    1.000         TR
       32         365.0000         12                    1.000         TR
       33         366.0000         12                    1.000         TR
       34         365.0000         12                    1.000         TR
       35         365.0000         12                    1.000         TR
       36         365.0000         12                    1.000         TR
       37         366.0000         12                    1.000         TR
       38         365.0000         12                    1.000         TR
       39         365.0000         12                    1.000         TR
       40         365.0000         12                    1.000         TR
       41         366.0000         12                    1.000         TR
       42         365.0000         12                    1.000         TR
       43         365.0000         12                    1.000         TR
       44         365.0000         12                    1.000         TR
       45         366.0000         12                    1.000         TR
       46         365.0000         12                    1.000         TR
       47         365.0000         12                    1.000         TR
       48         365.0000         12                    1.000         TR
       49         366.0000         12                    1.000         TR
       50         365.0000         12                    1.000         TR
       51         365.0000         12                    1.000         TR
       52         365.0000         12                    1.000         TR
       53         366.0000         12                    1.000         TR
       54         365.0000         12                    1.000         TR
       55         365.0000         12                    1.000         TR
       56         365.0000         12                    1.000         TR
       57         366.0000         12                    1.000         TR
       58         365.0000         12                    1.000         TR
       59         365.0000         12                    1.000         TR
       60         365.0000         12                    1.000         TR
       61         366.0000         12                    1.000         TR
       62         365.0000         12                    1.000         TR
       63         365.0000         12                    1.000         TR
       64         365.0000         12                    1.000         TR
       65         366.0000         12                    1.000         TR
       66         365.0000         12                    1.000         TR
       67         365.0000         12                    1.000         TR
       68         365.0000         12                    1.000         TR
       69         366.0000         12                    1.000         TR
       70         365.0000         12                    1.000         TR
       71         365.0000         12                    1.000         TR

 COMBINED STEADY-STATE AND TRANSIENT SIMULATION



 
 # TUCSON AMA GROUNDWATER FLOW MODEL                                             
 # MODFLOW BASIC PACKAGE - 4/17/2014                                             
 # TRANSIENT PROJECTION: 1940-2010
 # MODEL UNITS: LENGTH=FEET  TIME=DAYS  PERLIN=365 DAYS
 THE FREE FORMAT OPTION HAS BEEN SELECTED



                     BOUNDARY ARRAY FOR LAYER   1
 READING ON UNIT   11 WITH FORMAT: (FREE)              



                     BOUNDARY ARRAY FOR LAYER   2
 READING ON UNIT   11 WITH FORMAT: (FREE)              



                     BOUNDARY ARRAY FOR LAYER   3
 READING ON UNIT   11 WITH FORMAT: (FREE)              

 AQUIFER HEAD WILL BE SET TO   0.0000     AT ALL NO-FLOW NODES (IBOUND=0).



                       INITIAL HEAD FOR LAYER   1
 READING ON UNIT   11 WITH FORMAT: (15F5.0)            



                       INITIAL HEAD FOR LAYER   2
 READING ON UNIT   11 WITH FORMAT: (15F5.0)            



                       INITIAL HEAD FOR LAYER   3
 READING ON UNIT   11 WITH FORMAT: (15F5.0)            

 OUTPUT CONTROL IS SPECIFIED ONLY AT TIME STEPS FOR WHICH OUTPUT IS DESIRED
 HEADS WILL BE SAVED WITH FORMAT: (20f7.1)            
 SAVED HEADS WILL BE LABELED
 COMPACT CELL-BY-CELL BUDGET FILES WILL BE WRITTEN
 HEAD PRINT FORMAT CODE IS   0    DRAWDOWN PRINT FORMAT CODE IS   0
 HEADS WILL BE SAVED ON UNIT   31    DRAWDOWNS WILL BE SAVED ON UNIT    0
 # NWT Input File
 # xMD solver
 #HEADTOL  FLUXTOL MAXITEROUT THICKFACT LINMETH IPRNWT IBOTAV OPTIONS    DBDREDUCE DBDINCREASE DBDGAMMA MOMFACT BACKFLAG MAXBACKITER BACKTOL BACKREDUCE

 NWT1 -- Newton Solver, VERSION 1.0.9, 07/01/2014
         INPUT READ FROM UNIT 19

 SPECIFIED OPTION:
 SOLVER INPUT VALUES ARE SPECIFIED BY USER
 ***XMD linear solver will be used***
 
   CONVERGENCE CRITERION OF   0.100000E-01 FOR HEAD SOLUTION
   AND A TOLERANCE OF   0.864000E+03 FOR FLOW SOLUTION AND 
   A MAXIMUM OF   500 OUTER ITERATIONS. 


   D-B-D REDUCTION FACTOR OF    0.900000E+00 AND 
   A D-B-D INCREASE FACTOR OF    0.100000E-03 AND 
   A D-B-D RELAXATION OF    0.000000E+00 AND 
   A MOMENTUM FACTOR OF    0.100000E+00 .


 ***BACKTRACKING IS INACTIVE***
 XMD -- LINEAR SOLUTION BY XMD PACKAGE VERSION 1.30
     BY MOTOMU IBARAKI, OHIO STATE UNIVERSITY, COLOMBUS, OH
                 INPUT READ FROM UNIT 19
 ACCELERATION METHOD                    (IACL) =         2
 NODE ORDERING FLAG                   (NORDER) =         1
 LEVEL OF FILL                         (LEVEL) =         0
 MAXIMUM NUMBER OF ORTHOGONALIZATIONS  (NORTH) =         2
 INDEX FOR USING REDUCED SYSTEM      (IREDSYS) =         0
 RESID. REDUCTION CONVERGE CRITERION  (RRCTOL) =  0.000000E+00
 INDEX FOR USING DROP TOLERANCE     (IDROPTOL) =         1
 DROP TOLERANCE VALUE                  (EPSRN) =  0.100000E-03
 CONVERGENCE CRITERIA OF           (HCLOSEXMD) =  0.100000E-02
 MAX. NUMBER OF LINEAR ITERATIONS  (MXITERXMD) =        50


 UPW1 -- UPSTREAM WEIGHTING FLOW PACKAGE, VERSION 1.0.6, 12/05/2012
         INPUT READ FROM UNIT 12

 # TUCSON AMA GROUNDWATER FLOW MODEL - 1940-2010
 # Upstream-Weighting Package (UPW): 04/17/2014
 # STEADY-STATE/TRANSIENT PHASE: 1940-2010
 CELL-BY-CELL FLOWS WILL BE SAVED ON UNIT   39
 No named parameters

   LAYER FLAGS:
 LAYER       LAYTYP          LAYAVG    CHANI           LAYVKA           LAYWET
 ---------------------------------------------------------------------------
    1             1             0     1.000E+00             1             0
    2             3             0     1.000E+00             1             0
    3             3             0     1.000E+00             1             0

   INTERPRETATION OF LAYER FLAGS:
                        INTERBLOCK     HORIZONTAL    DATA IN
         LAYER TYPE   TRANSMISSIVITY   ANISOTROPY   ARRAY VKA   WETTABILITY
 LAYER   (LAYTYP)        (LAYAVG)      (CHANI)     (LAYVKA)       (LAYWET)
 ---------------------------------------------------------------------------
    1   CONVERTIBLE      HARMONIC     1.000E+00    ANISOTROPY  NON-WETTABLE
    2   CONVERTIBLE      HARMONIC     1.000E+00    ANISOTROPY  NON-WETTABLE
    3   CONVERTIBLE      HARMONIC     1.000E+00    ANISOTROPY  NON-WETTABLE



              HYD. COND. ALONG ROWS FOR LAYER   1
 READING ON UNIT   12 WITH FORMAT: (FREE)              



            HORIZ. TO VERTICAL ANI. FOR LAYER   1
 READING ON UNIT   12 WITH FORMAT: (FREE)              

         SPECIFIC STORAGE =  1.000000E-06 FOR LAYER   1



                     SPECIFIC YIELD FOR LAYER   1
 READING ON UNIT   12 WITH FORMAT: (FREE)              



              HYD. COND. ALONG ROWS FOR LAYER   2
 READING ON UNIT   12 WITH FORMAT: (FREE)              



            HORIZ. TO VERTICAL ANI. FOR LAYER   2
 READING ON UNIT   12 WITH FORMAT: (FREE)              

         SPECIFIC STORAGE =  1.000000E-06 FOR LAYER   2



                     SPECIFIC YIELD FOR LAYER   2
 READING ON UNIT   12 WITH FORMAT: (FREE)              



              HYD. COND. ALONG ROWS FOR LAYER   3
 READING ON UNIT   12 WITH FORMAT: (FREE)              



            HORIZ. TO VERTICAL ANI. FOR LAYER   3
 READING ON UNIT   12 WITH FORMAT: (FREE)              

         SPECIFIC STORAGE =  1.000000E-06 FOR LAYER   3



                     SPECIFIC YIELD FOR LAYER   3
 READING ON UNIT   12 WITH FORMAT: (FREE)              

 WEL -- WELL PACKAGE, VERSION 1.0.6, 12/05/2012 INPUT READ FROM UNIT   13
 # Tucson Model 1940 to 2010 Pumpage File
 # File Date: 02/3/2014
 # TARP pumpage reduced by 95%
 # Source: H:\TUCSON\GIS\SHAPEFILES\MODEL_PUMPAGE1940-2010_V7.DBF
 No named parameters
 MAXIMUM OF   6000 ACTIVE WELLS AT ONE TIME
 CELL-BY-CELL FLOWS WILL BE SAVED ON UNIT   39
 LISTS OF WELL CELLS WILL NOT BE PRINTED
 No named parameters
 
 NEGATIVE PUMPING RATES WILL BE REDUCED IF HEAD 
 FALLS WITHIN THE INTERVAL PHIRAMP TIMES THE CELL 
 THICKNESS. THE VALUE SPECIFIED FOR PHIRAMP IS  0.20000E-01
 WELLS WITH REDUCED PUMPING WILL BE REPORTED TO FILE UNIT NUMBER   35


     0 Well parameters

 EVT -- EVAPOTRANSPIRATION PACKAGE, VERSION 7, 5/2/2005
         INPUT READ FROM UNIT   14
 #  TUCSON MODEL UPDATE 1940-2010: EVT PACKAGE
 #  Et Rates converted to ac-ft per year
 #  All ET set to be drawn from the upper most layer
 #  Max ET Rate increased 25%:  Multiplier increased 1.7123E-5 -> 2.1406E-5
 No named parameters
 OPTION 1 -- EVAPOTRANSPIRATION FROM TOP LAYER
 CELL-BY-CELL FLOWS WILL BE SAVED ON UNIT   39


     0 Evapotranspiration parameters

 RCH -- RECHARGE PACKAGE, VERSION 7, 5/2/2005 INPUT READ FROM UNIT   16
 #  Recharge Package 1940 -> 2010 - 04/23/2014
 #  Ag recharge percentages are 33-28-25
 #  Recharge package with mountain-front and
 #  lagged USF recharge for LSCRP fixed
 #
 No named parameters
 OPTION 3 -- RECHARGE TO HIGHEST ACTIVE NODE IN EACH VERTICAL COLUMN
 CELL-BY-CELL FLOWS WILL BE SAVED ON UNIT   39


     0 Recharge parameters

 CHD -- TIME-VARIANT SPECIFIED-HEAD OPTION, VERSION 7, 5/2/2005
 INPUT READ FROM UNIT   15
 # Constant Head Package: 1940-2010
 # Tucson Groundwater Flow Model Transient Phase
 # Created using text file test1.txt - 2/23/2012
 # Pinal heads are 8 feet less than the simulated heads
 No named parameters
 MAXIMUM OF     63 TIME-VARIANT SPECIFIED-HEAD CELLS AT ONE TIME
 LISTS OF TIME-VARIANT SPECIFIED-HEAD CELLS WILL NOT BE PRINTED


     0 TIME-VARIANT SPECIFIED-HEAD PARAMETERS

 HYD -- HYDROGRAPH DATA FOR BAS PACKAGE, VERSION 7, 07/14/2006
         INPUT READ FROM UNIT  9
 HYDROGRAPH VALUES WILL BE SAVED ON UNIT:  33
 HYDROGRAPH VALUES AT DRY CELLS WILL BE:   -666.00    

 ARR INTYP  KLAY     XL            YL         HYDLBL
 ----------------------------------------------------------------
 HD   I      2   3.47180E+04   3.26272E+05  HDI002D-10-09-12CBC 
 HD   I      2   3.17923E+04   3.21696E+05  HDI002D-10-09-14CAA 
 HD   I      2   3.97879E+04   3.15080E+05  HDI002D-10-09-24DDD 
 HD   I      2   5.02884E+04   3.31393E+05  HDI002D-10-10-05DAD 
 HD   I      1   4.83013E+04   3.14224E+05  HDI001D-10-10-20DCC 
 HD   I      3   1.67311E+05   3.29260E+05  HDI003D-10-13-12DDA 
 HD   I      2   1.76511E+05   3.12900E+05  HDI002D-10-14-29DCA 
 HD   I      2   4.73275E+04   2.95880E+05  HDI002D-11-10-08DDD 
 HD   I      2   5.79602E+04   2.94616E+05  HDI002D-11-10-15AAD 
 HD   I      2   5.77270E+04   2.87908E+05  HDI002D-11-10-22ADD1
 HD   I      2   6.83979E+04   2.90445E+05  HDI002D-11-10-24AAA 
 HD   I      2   6.83646E+04   2.80636E+05  HDI002D-11-10-25DDA2
 HD   I      2   8.22753E+04   2.91424E+05  HDI002D-11-11-16CDD1
 HD   I      3   8.22753E+04   2.91424E+05  HDI003D-11-11-16CDD1
 HD   I      2   9.15970E+04   2.83525E+05  HDI002D-11-11-26BDC 
 HD   I      2   8.99591E+04   2.78174E+05  HDI002D-11-11-34ADD 
 HD   I      3   8.99591E+04   2.78174E+05  HDI003D-11-11-34ADD 
 HD   I      2   5.24735E+04   2.64223E+05  HDI002D-12-10-09DDD 
 HD   I      2   6.44744E+04   2.64189E+05  HDI002D-12-10-12CDD2
 HD   I      3   6.44744E+04   2.64189E+05  HDI003D-12-10-12CDD2
 HD   I      2   9.67445E+04   2.67696E+05  HDI002D-12-11-12BDC 
 HD   I      2   7.95249E+04   2.59465E+05  HDI002D-12-11-20AAA 
 HD   I      2   1.13419E+05   2.63389E+05  HDI002D-12-12-16BAD 
 HD   I      2   1.20442E+05   2.57249E+05  HDI002D-12-12-22ADC 
 HD   I      2   1.15974E+05   2.48533E+05  HDI002D-12-12-33AAA 
 HD   I      2   1.36473E+05   2.50639E+05  HDI002D-12-13-30DAC 
 HD   I      2   1.69992E+05   2.69936E+05  HDI002D-12-14-05CCD 
 HD   I      3   4.96494E+04   2.37760E+05  HDI003D-13-10-04CDD 
 HD   I      3   6.03308E+04   2.21868E+05  HDI003D-13-10-23CDD 
 HD   I      2   6.83726E+04   2.11442E+05  HDI002D-13-11-31CCC1
 HD   I      3   6.83726E+04   2.11442E+05  HDI003D-13-11-31CCC1
 HD   I      2   1.37326E+05   2.43566E+05  HDI002D-13-13-06AAA2
 HD   I      2   1.27238E+05   2.38920E+05  HDI002D-13-13-06DDD 
 HD   I      2   1.39899E+05   2.38212E+05  HDI002D-13-13-08BAA 
 HD   I      2   1.59116E+05   2.33159E+05  HDI002D-13-13-13BBA 
 HD   I      1   1.42469E+05   2.29623E+05  HDI001D-13-13-17DAD 
 HD   I      1   1.44785E+05   2.27704E+05  HDI001D-13-13-21BAA 
 HD   I      2   1.47530E+05   2.19924E+05  HDI002D-13-13-28ADD 
 HD   I      2   1.47273E+05   2.13662E+05  HDI002D-13-13-33DAC 
 HD   I      2   1.62726E+05   2.12350E+05  HDI002D-13-13-36DDC 
 HD   I      2   1.63835E+05   2.27705E+05  HDI002D-13-14-19BBB1
 HD   I      2   1.85724E+05   2.22468E+05  HDI002D-13-14-26BBB 
 HD   I      2   1.81350E+05   2.17816E+05  HDI002D-13-14-27CDC1
 HD   I      2   1.84441E+05   2.16607E+05  HDI002D-13-14-34AAD 
 HD   I      1   1.91401E+05   2.12372E+05  HDI001D-13-14-36CCD 
 HD   I      1   2.15602E+05   2.17461E+05  HDI001D-13-15-27DDC 
 HD   I      2   7.39286E+04   2.00922E+05  HDI002D-14-11-08CCC1
 HD   I      3   7.39286E+04   2.00922E+05  HDI003D-14-11-08CCC1
 HD   I      2   7.87016E+04   1.85152E+05  HDI002D-14-11-29DDD 
 HD   I      3   1.49677E+05   2.08711E+05  HDI003D-14-13-03CAC 
 HD   I      2   1.56033E+05   1.88406E+05  HDI002D-14-13-26DBB 
 HD   I      2   1.52252E+05   1.83052E+05  HDI002D-14-13-34ADC 
 HD   I      2   1.55001E+05   1.82547E+05  HDI002D-14-13-35CAB 
 HD   I      2   1.70627E+05   2.06292E+05  HDI002D-14-14-08BAB 
 HD   I      2   1.82652E+05   2.04281E+05  HDI002D-14-14-10ACC1
 HD   I      2   1.86523E+05   1.97819E+05  HDI002D-14-14-14CAC 
 HD   I      2   1.74670E+05   1.98415E+05  HDI002D-14-14-16CBB1
 HD   I      2   1.69775E+05   1.93563E+05  HDI002D-14-14-20CBB 
 HD   I      2   1.90402E+05   1.85499E+05  HDI002D-14-14-35AAA 
 HD   I      2   2.21974E+05   2.07776E+05  HDI002D-14-15-02DDA1
 HD   I      2   2.00261E+05   2.00463E+05  HDI002D-14-15-18AAC 
 HD   I      2   2.01057E+05   1.85311E+05  HDI002D-14-15-32BBB 
 HD   I      2   6.25477E+04   1.52763E+05  HDI002D-15-10-35AAA 
 HD   I      3   7.41254E+04   1.74757E+05  HDI003D-15-11-05CCD 
 HD   I      2   9.44895E+04   1.72190E+05  HDI002D-15-11-11ADD 
 HD   I      3   9.44895E+04   1.72190E+05  HDI003D-15-11-11ADD 
 HD   I      1   1.56722E+05   1.78910E+05  HDI001D-15-13-02ACA1
 HD   I      1   1.54144E+05   1.71940E+05  HDI001D-15-13-11CBA 
 HD   I      1   1.51394E+05   1.58706E+05  HDI001D-15-13-27ABB1
 HD   I      3   1.85084E+05   1.76604E+05  HDI003D-15-14-03DAD 
 HD   I      2   1.64631E+05   1.71336E+05  HDI002D-15-14-07CBC 
 HD   I      3   1.64120E+05   1.59214E+05  HDI003D-15-14-19CCC 
 HD   I      3   1.64123E+05   1.50829E+05  HDI003D-15-14-31CBB1
 HD   I      2   1.95823E+05   1.79748E+05  HDI002D-15-15-06BBB 
 HD   I      2   2.24838E+05   1.54948E+05  HDI002D-15-15-25DBC2
 HD   I      2   3.63196E+04   1.29003E+05  HDI002D-16-09-24DAC 
 HD   I      2   7.41227E+04   1.37178E+05  HDI002D-16-11-08CCC 
 HD   I      3   1.52254E+05   1.20824E+05  HDI003D-16-13-34AAB2
 HD   I      2   1.54404E+05   1.47695E+05  HDI002D-16-13S02BBA2
 HD   I      1   1.65161E+05   1.37495E+05  HDI001D-16-14-07CCD 
 HD   I      2   1.64907E+05   1.26989E+05  HDI002D-16-14-19CCD 
 HD   I      2   1.73942E+05   1.30732E+05  HDI002D-16-14-20ADA 
 HD   I      2   1.71539E+05   1.19012E+05  HDI002D-16-14-32BDD2
 HD   I      2   1.99234E+05   1.37930E+05  HDI002D-16-15-18ABD 
 HD   I      3   2.41308E+05   1.38623E+05  HDI003D-16-16-09DCD2
 HD   I      2   1.60003E+05   1.13653E+05  HDI002D-17-13-01CAB 
 HD   I      1   1.58891E+05   8.63786E+04  HDI001D-17-13-36CBC2
 HD   I      2   1.71895E+05   1.00122E+05  HDI002D-17-14-17DCC 
 HD   I      2   1.63972E+05   9.43603E+04  HDI002D-17-14-30BBB 
 HD   I      3   2.20194E+05   1.13015E+05  HDI003D-17-15-02DCD 
 HD   I      2   1.61219E+05   7.99142E+04  HDI002D-18-13-01CDA 
 HD   I      2   1.59669E+05   7.08220E+04  HDI002D-18-13-13CBA 
 HD   I      2   1.58637E+05   6.21349E+04  HDI002D-18-13-26AAD 
 HD   I      1   1.54583E+05   5.80934E+04  HDI001D-18-13-26CCD 
 HD   I      1   1.58984E+05   5.56700E+04  HDI001D-18-13-36BCC 
 HD   I      1   1.45440E+05   4.50633E+04  HDI001D-19-13-09CAA 
 HD   I      2   1.38013E+05   2.95093E+04  HDI002D-19-13-29BCC 
 HD   I      2   1.48392E+05   2.59222E+05  HDI002D-12-13-22BBB 
 HD   I      3   2.21974E+05   2.07776E+05  HDI003D-14-15-02DDA1
 HD   I      1   1.74585E+05   1.96698E+05  HDI001D-14-14-16CCC1
 HD   I      2   1.74585E+05   1.96698E+05  HDI002D-14-14-16CCC2
 HD   I      3   1.74585E+05   1.96698E+05  HDI003D-14-14-16CCC3
 HD   I      1   2.06415E+05   1.66732E+05  HDI001D-15-15-16CBB1
 HD   I      2   2.06415E+05   1.66732E+05  HDI002D-15-15-16CBB2
 HD   I      3   2.06415E+05   1.66732E+05  HDI003D-15-15-16CBB3
 HD   I      1   2.00772E+05   1.45509E+05  HDI001D-16-15-05CBC1
 HD   I      2   2.00772E+05   1.45509E+05  HDI002D-16-15-05CBC2
 HD   I      3   2.00772E+05   1.45509E+05  HDI003D-16-15-05CBC3

 OBS2BAS7 -- HEAD OBSERVATIONS, VERSION 2.0, 2/28/2006
 INPUT READ FROM UNIT   8
 # Tucson Update 1940-2011 Head Observation File
 # HOB Package with observed heads 1940-2011

 NUMBER OF HEADS....................................: 8395
   NUMBER OF MULTILAYER HEADS.......................: 2560
   MAXIMUM NUMBER OF LAYERS FOR MULTILAYER HEADS....:    3
 HEAD OBSERVATIONS WILL BE SAVED ON UNIT............:   34
 SIMULATED EQUIVALENT HEAD AT DRY CELLS WILL BE:   -666.000    

 OBSERVED HEAD DATA -- TIME OFFSETS ARE MULTIPLIED BY:  1.00000    

                    REFER.
       OBSERVATION  STRESS    TIME
  OBS#    NAME      PERIOD   OFFSET    OBSERVATION
     1 3522-15-337      1    365.0       2965.    
 Observation within a steady-state time step has been moved to the end of the time step.
     2 3489-20-74       1    365.0       2968.    
 Observation within a steady-state time step has been moved to the end of the time step.
     3 3485-19-34       1    365.0       2966.    
 Observation within a steady-state time step has been moved to the end of the time step.
     4 3465-20-300      1    365.0       2968.    
 Observation within a steady-state time step has been moved to the end of the time step.
     5 3415-15-154      1    365.0       2955.    
 Observation within a steady-state time step has been moved to the end of the time step.
     6 3314-43-7        1    365.0       2830.    
 Observation within a steady-state time step has been moved to the end of the time step.
     7 3241-5-82        1    365.0       2709.    
 Observation within a steady-state time step has been moved to the end of the time step.
     8 3384-7-41        7    41.00       1626.    
     9 3384-12-10      12   10.000       1613.    
    10 3384-16-340     16    340.0       1572.    
    11 3384-21-335     21    335.0       1549.    
    12 3384-27-13      27    13.00       1531.    
    13 3384-32-5       32    5.000       1517.    
    14 3384-36-349     36    349.0       1499.    
    15 3400-55-321     55    321.0       1558.    
    16 3400-60-312     60    312.0       1568.    
    17 3400-65-363     65    363.0       1583.    
    18 3400-71-349     71    349.0       1600.    
    19 3401-55-321     55    321.0       1613.    
    20 3401-60-312     60    312.0       1621.    
    21 3401-65-363     65    363.0       1631.    
    22 3401-71-349     71    349.0       1650.    
    23 3397-11-313     11    313.0       1674.    
    24 3361-21-339     21    339.0       1555.    
    25 3361-32-5       32    5.000       1524.    
    26 3346-16-340     16    340.0       1573.    
    27 3346-21-339     21    339.0       1537.    
    28 3346-32-5       32    5.000       1495.    
    29 3346-37-349     37    349.0       1474.    
    30 3346-49-54      49    54.00       1506.    
    31 3346-60-319     60    319.0       1517.    
    32 3346-65-298     65    298.0       1529.    
    33 3346-71-13      71    13.00       1544.    
    34 3376-6-41        6    41.00       1665.    
    35 3376-12-46      12    46.00       1648.    
    36 3376-16-362     16    362.0       1635.    
    37 3376-21-336     21    336.0       1591.    
    38 3376-27-12      27    12.00       1561.    
    39 3376-38-1       38   1.0000       1527.    
    40 3327-56-26      56    26.00       1579.    
    41 3327-66-18      66    18.00       1601.    
    42 3306-1-32        1    32.00       1688.    
 Observation within a steady-state time step has been moved to the end of the time step.
    43 3299-38-41      38    41.00       1546.    
    44 3311-15-337     15    337.0       2982.    
    45 3313-32-7       32    7.000       1579.    
    46 3313-38-1       38   1.0000       1560.    
    47 3313-56-26      56    26.00       1601.    
    48 3313-66-18      66    18.00       1626.    
    49 3303-56-26      56    26.00       1600.    
    50 3303-66-18      66    18.00       1624.    
    51 3302-12-32      12    32.00       1680.    
    52 3302-56-26      56    26.00       1606.    
    53 3302-66-18      66    18.00       1633.    
    54 3320-2-305       2    305.0       1680.    
    55 3324-26-339     26    339.0       1550.    
    56 3312-16-335     16    335.0       1604.    
    57 3312-21-335     21    335.0       1576.    
    58 3312-32-1       32   1.0000       1537.    
    59 3312-36-51      36    51.00       1523.    
    60 3294-1-60        1    60.00       1692.    
 Observation within a steady-state time step has been moved to the end of the time step.
    61 3291-16-362     16    362.0       1650.    
    62 3288-12-32      12    32.00       1671.    
    63 3288-21-335     21    335.0       1622.    
    64 3288-32-7       32    7.000       1602.    
    65 3282-21-336     21    336.0       1628.    
    66 3282-32-7       32    7.000       1604.    
    67 3282-38-10      38   10.000       1584.    
    68 3285-5-179       5    179.0       1699.    
    69 3285-11-25      11    25.00       1690.    
    70 3285-16-341     16    341.0       1666.    
    71 3285-21-336     21    336.0       1639.    
    72 3279-12-39      12    39.00       1679.    
    73 3279-16-362     16    362.0       1650.    
    74 3279-21-341     21    341.0       1639.    
    75 3279-27-28      27    28.00       1624.    
    76 3281-21-336     21    336.0       1635.    
    77 3281-37-350     37    350.0       1573.    
    78 3268-21-274     21    274.0       1652.    
    79 3268-38-6       38    6.000       1576.    
    80 3259-16-348     16    348.0       1684.    
     MULTIPLE LAYERS AND PROPORTIONS :    1, 0.19       2, 0.69       3, 0.12
    81 3259-32-7       32    7.000       1619.    
     MULTIPLE LAYERS AND PROPORTIONS :    2, 0.69       3, 0.31
    82 3259-36-350     36    350.0       1606.    
     MULTIPLE LAYERS AND PROPORTIONS :    2, 0.88       3, 0.12
    83 3237-1-365       1    365.0       1723.    
 Observation within a steady-state time step has been moved to the end of the time step.
    84 3237-3-355       3    355.0       1721.    
    85 3237-12-59      12    59.00       1713.    
    86 3237-12-59      12    59.00       1713.    
    87 3234-6-284       6    284.0       1719.    
    88 3234-12-32      12    32.00       1710.    
    89 3234-16-348     16    348.0       1689.    
    90 3231-21-341     21    341.0       1661.    
     MULTIPLE LAYERS AND PROPORTIONS :    2, 0.28       3, 0.72
    91 3231-27-12      27    12.00       1642.    
     MULTIPLE LAYERS AND PROPORTIONS :    2, 0.28       3, 0.72
    92 3231-38-3       38    3.000       1595.    
     MULTIPLE LAYERS AND PROPORTIONS :    2, 0.28       3, 0.72
    93 3382-48-363     48    363.0       1604.    
    94 3383-48-363     48    363.0       1619.    
    95 3363-56-23      56    23.00       1632.    
    96 3363-66-18      66    18.00       1646.    
    97 3364-11-342     11    342.0       1694.    
     MULTIPLE LAYERS AND PROPORTIONS :    1, 0.15       2, 0.85
    98 3364-16-362     16    362.0       1671.    
     MULTIPLE LAYERS AND PROPORTIONS :    1, 0.15       2, 0.85
    99 3364-21-341     21    341.0       1646.    
     MULTIPLE LAYERS AND PROPORTIONS :    1, 0.15       2, 0.85
   100 3364-27-28      27    28.00       1639.    
   101 3364-32-4       32    4.000       1621.    
   102 3364-36-349     36    349.0       1617.    
   103 3364-43-19      43    19.00       1616.    
   104 3364-49-54      49    54.00       1622.    
   105 3364-56-25      56    25.00       1626.    
   106 3364-60-319     60    319.0       1628.    
   107 3364-65-298     65    298.0       1635.    
     MULTIPLE LAYERS AND PROPORTIONS :    1, 0.15       2, 0.85
   108 3364-71-13      71    13.00       1648.    
     MULTIPLE LAYERS AND PROPORTIONS :    1, 0.15       2, 0.85
   109 3364-71-365     71    365.0       1652.    
     MULTIPLE LAYERS AND PROPORTIONS :    1, 0.15       2, 0.85
   110 3370-56-25      56    25.00       1623.    
   111 3370-61-72      61    72.00       1628.    
   112 3370-66-18      66    18.00       1637.    
   113 3353-21-335     21    335.0       1659.    
   114 3353-27-12      27    12.00       1646.    
   115 3353-56-25      56    25.00       1627.    
   116 3353-66-18      66    18.00       1635.    
   117 3351-56-25      56    25.00       1628.    
   118 3351-61-72      61    72.00       1629.    
   119 3351-66-18      66    18.00       1639.    
   120 3310-56-23      56    23.00       1643.    
   121 3307-56-23      56    23.00       1644.    
   122 3307-61-73      61    73.00       1649.    
   123 3307-66-20      66    20.00       1676.    
   124 3292-56-25      56    25.00       1630.    
     MULTIPLE LAYERS AND PROPORTIONS :    2, 0.35       3, 0.65
   125 3292-61-73      61    73.00       1638.    
     MULTIPLE LAYERS AND PROPORTIONS :    2, 0.35       3, 0.65
   126 3292-66-19      66    19.00       1663.    
     MULTIPLE LAYERS AND PROPORTIONS :    2, 0.35       3, 0.65
   127 3278-11-296     11    296.0       1706.    
   128 3278-16-343     16    343.0       1693.    
   129 3278-21-340     21    340.0       1664.    
   130 3278-27-12      27    12.00       1658.    
   131 3278-32-4       32    4.000       1650.    
   132 3278-36-350     36    350.0       1648.    
   133 3278-43-19      43    19.00       1650.    
   134 3278-49-54      49    54.00       1656.    
   135 3278-56-25      56    25.00       1656.    
   136 3278-60-319     60    319.0       1660.    
   137 3278-65-301     65    301.0       1670.    
   138 3278-71-13      71    13.00       1684.    
   139 3278-71-365     71    365.0       1686.    
   140 3290-56-25      56    25.00       1638.    
     MULTIPLE LAYERS AND PROPORTIONS :    2, 0.84       3, 0.16
   141 3290-61-73      61    73.00       1647.    
     MULTIPLE LAYERS AND PROPORTIONS :    2, 0.84       3, 0.16
   142 3290-66-19      66    19.00       1671.    
     MULTIPLE LAYERS AND PROPORTIONS :    2, 0.84       3, 0.16
   143 3250-12-32      12    32.00       1737.    
   144 3250-16-363     16    363.0       1711.    
   145 3250-21-335     21    335.0       1688.    
   146 3250-32-7       32    7.000       1652.    
   147 3250-36-352     36    352.0       1632.    
   148 3308-56-25      56    25.00       1672.    
     MULTIPLE LAYERS AND PROPORTIONS :    2, 0.78       3, 0.22
   149 3308-61-73      61    73.00       1673.    
     MULTIPLE LAYERS AND PROPORTIONS :    2, 0.78       3, 0.22
   150 3308-66-20      66    20.00       1698.    
     MULTIPLE LAYERS AND PROPORTIONS :    2, 0.78       3, 0.22
   151 3249-16-363     16    363.0       1709.    
   152 3249-21-340     21    340.0       1688.    
   153 3249-36-352     36    352.0       1660.    
   154 3249-56-25      56    25.00       1688.    
   155 3249-61-73      61    73.00       1698.    
   156 3233-3-355       3    355.0       1744.    
   157 3233-6-341       6    341.0       1743.    
   158 3233-12-59      12    59.00       1737.    
   159 3233-16-311     16    311.0       1725.    
   160 3230-16-348     16    348.0       1722.    
     MULTIPLE LAYERS AND PROPORTIONS :    1, 0.45       2, 0.55
   161 3230-21-340     21    340.0       1705.    
     MULTIPLE LAYERS AND PROPORTIONS :    1, 0.45       2, 0.55
   162 3230-27-1       27   1.0000       1694.    
     MULTIPLE LAYERS AND PROPORTIONS :    1, 0.45       2, 0.55
   163 3230-32-7       32    7.000       1702.    
     MULTIPLE LAYERS AND PROPORTIONS :    1, 0.45       2, 0.55
   164 3230-36-352     36    352.0       1682.    
   165 3230-56-25      56    25.00       1711.    
   166 3230-61-72      61    72.00       1716.    
   167 3229-17-4       17    4.000       1729.    
     MULTIPLE LAYERS AND PROPORTIONS :    1, 0.89       2, 0.11
   168 3247-61-73      61    73.00       1711.    
   169 3247-66-20      66    20.00       1715.    
   170 3368-56-25      56    25.00       1668.    
   171 3333-12-10      12   10.000       1744.    
   172 3333-16-343     16    343.0       1741.    
   173 3333-32-85      32    85.00       1693.    
   174 3333-35-53      35    53.00       1685.    
   175 3332-49-54      49    54.00       1671.    
   176 3332-56-26      56    26.00       1674.    
   177 3332-60-319     60    319.0       1679.    
   178 3332-65-298     65    298.0       1687.    
   179 3332-71-13      71    13.00       1699.    
   180 3332-71-365     71    365.0       1701.    
   181 3330-56-25      56    25.00       1659.    
   182 3315-48-300     48    300.0       1659.    
   183 3315-55-321     55    321.0       1664.    
   184 3315-60-312     60    312.0       1666.    
   185 3315-65-363     65    363.0       1676.    
   186 3315-71-351     71    351.0       1691.    
   187 3316-48-300     48    300.0       1658.    
   188 3316-55-321     55    321.0       1663.    
   189 3316-60-312     60    312.0       1666.    
   190 3316-65-363     65    363.0       1677.    
   191 3316-71-351     71    351.0       1692.    
   192 3284-56-25      56    25.00       1689.    
   193 3275-38-12      38    12.00       1709.    
   194 3287-38-24      38    24.00       1676.    
   195 3265-48-364     48    300.0       1671.    
   196 3265-56-25      56    25.00       1676.    
     MULTIPLE LAYERS AND PROPORTIONS :    2, 0.47       3, 0.53
   197 3228-56-20      56    20.00       1682.    
     MULTIPLE LAYERS AND PROPORTIONS :    1, 0.16       2, 0.84
   198 3228-61-73      61    73.00       1697.    
     MULTIPLE LAYERS AND PROPORTIONS :    1, 0.16       2, 0.84
   199 3228-66-19      66    19.00       1727.    
     MULTIPLE LAYERS AND PROPORTIONS :    1, 0.16       2, 0.84
   200 3347-20-74      20    74.00       2968.    
   201 3347-26-157     37    33.00       2967.    
   202 3347-37-33      37    33.00       2963.    
   203 3347-43-82      43    82.00       2967.    
   204 3347-48-336     48    336.0       2971.    
   205 3347-56-23      56    23.00       2969.    
   206 3347-61-62      61    62.00       2971.    
   207 3347-65-299     65    299.0       2969.    
   208 3347-71-12      71    12.00       2966.    
   209 3347-71-365     71    365.0       2966.    
   210 3378-15-337     15    337.0       2965.    
   211 3378-26-127     26    112.0       2971.    
   212 3378-33-312     33    312.0       2954.    
   213 3378-43-82      43    82.00       2971.    
   214 3378-48-337     48    337.0       2976.    
   215 3378-56-23      56    23.00       2976.    
   216 3378-61-62      61    62.00       2976.    
   217 3378-66-18      66    18.00       2972.    
   218 3336-71-63      71    63.00       2981.    
   219 3343-19-34      19    34.00       2966.    
   220 3343-26-121     26    121.0       2966.    
   221 3343-33-311     33    311.0       2952.    
   222 3343-43-82      43    82.00       2975.    
   223 3343-48-336     48    336.0       2978.    
   224 3343-56-25      56    25.00       2977.    
   225 3343-61-62      61    62.00       2975.    
   226 3343-66-24      66    24.00       2971.    
   227 3343-71-63      71    63.00       2963.    
   228 3322-20-300     20    300.0       2968.    
   229 3322-26-127     26    127.0       2967.    
   230 3322-48-337     48    337.0       2973.    
   231 3322-56-25      56    25.00       2963.    
   232 3322-61-60      61    60.00       2964.    
   233 3317-43-85      43    85.00       2959.    
   234 3317-56-25      56    25.00       2964.    
   235 3317-61-60      61    60.00       2961.    
   236 3317-66-27      66    27.00       2959.    
   237 3317-71-64      71    64.00       2962.    
   238 3300-56-26      56    26.00       2995.    
   239 3289-56-26      56    26.00       3009.    
   240 3289-61-65      61    65.00       2998.    
   241 3276-56-26      56    26.00       3018.    
   242 3270-56-26      56    26.00       2964.    
   243 3272-15-154     15    154.0       2955.    
   244 3272-26-125     26    125.0       2957.    
   245 3272-37-36      37    36.00       2947.    
   246 3272-43-27      43    27.00       2962.    
   247 3272-48-336     48    336.0       2970.    
   248 3272-56-26      56    26.00       2966.    
   249 3272-61-60      61    60.00       2962.    
   250 3272-71-12      71    12.00       2947.    
   251 3266-56-26      56    26.00       2956.    
   252 3260-33-313     33    313.0       3027.    
   253 3260-48-334     48    334.0       3050.    
   254 3260-56-26      56    26.00       3044.    
   255 3222-38-6       38    6.000       1714.    
   256 3213-12-324     12    324.0       1725.    
   257 3213-16-335     16    335.0       1716.    
   258 3213-21-335     21    335.0       1699.    
   259 3213-32-7       32    7.000       1680.    
   260 3213-38-10      38   10.000       1660.    
   261 3213-56-19      56    19.00       1689.    
   262 3205-2-230       2    230.0       1730.    
     MULTIPLE LAYERS AND PROPORTIONS :    1, 0.18       2, 0.82
   263 3205-22-37      22    37.00       1683.    
     MULTIPLE LAYERS AND PROPORTIONS :    1, 0.18       2, 0.82
   264 3191-2-188       2    188.0       1745.    
   265 3178-17-4       17    4.000       1713.    
   266 3178-22-37      22    37.00       1688.    
   267 3178-32-85      32    85.00       1649.    
   268 3178-36-65      36    65.00       1610.    
   269 3178-42-349     42    349.0       1623.    
   270 3178-48-341     48    341.0       1643.    
   271 3178-56-23      56    23.00       1655.    
   272 3178-60-319     60    319.0       1671.    
   273 3177-17-4       17    4.000       1713.    
     MULTIPLE LAYERS AND PROPORTIONS :    1, 0.18       2, 0.82
   274 3176-11-297     11    297.0       1743.    
     MULTIPLE LAYERS AND PROPORTIONS :    1, 0.31       2, 0.69
   275 3176-16-342     16    342.0       1718.    
     MULTIPLE LAYERS AND PROPORTIONS :    1, 0.31       2, 0.69
   276 3176-21-342     21    342.0       1691.    
     MULTIPLE LAYERS AND PROPORTIONS :    1, 0.31       2, 0.69
   277 3176-32-7       32    7.000       1633.    
   278 3176-34-339     34    339.0       1628.    
   279 3174-21-335     21    335.0       1695.    
   280 3174-56-19      56    19.00       1680.    
   281 3174-61-60      61    60.00       1690.    
   282 3174-66-24      66    24.00       1723.    
   283 3188-2-335       2    335.0       1755.    
   284 3188-6-341       6    341.0       1754.    
   285 3188-10-350     10    350.0       1750.    
   286 3199-38-6       38    6.000       1636.    
     MULTIPLE LAYERS AND PROPORTIONS :    2, 0.82       3, 0.18
   287 3199-48-337     48    337.0       1674.    
     MULTIPLE LAYERS AND PROPORTIONS :    2, 0.82       3, 0.18
   288 3199-61-60      61    60.00       1705.    
     MULTIPLE LAYERS AND PROPORTIONS :    2, 0.82       3, 0.18
   289 3175-48-337     48    337.0       1664.    
   290 3175-56-19      56    19.00       1686.    
   291 3175-66-24      66    24.00       1729.    
   292 3196-56-19      56    19.00       1688.    
   293 3171-21-335     21    335.0       1716.    
   294 3171-26-313     26    313.0       1672.    
   295 3171-48-337     48    337.0       1698.    
   296 3173-48-337     48    337.0       1672.    
   297 3173-56-19      56    19.00       1692.    
   298 3173-61-60      61    60.00       1701.    
   299 3173-66-20      66    20.00       1730.    
   300 3172-56-19      56    19.00       1682.    
   301 3172-61-60      61    60.00       1691.    
   302 3172-66-24      66    24.00       1723.    
   303 3163-12-91      12    91.00       1748.    
   304 3163-21-335     21    335.0       1701.    
   305 3197-42-351     42    351.0       1684.    
     MULTIPLE LAYERS AND PROPORTIONS :    2, 0.43       3, 0.57
   306 3197-48-348     48    348.0       1700.    
     MULTIPLE LAYERS AND PROPORTIONS :    2, 0.43       3, 0.57
   307 3197-56-4       56    4.000       1699.    
     MULTIPLE LAYERS AND PROPORTIONS :    2, 0.43       3, 0.57
   308 3197-61-5       61    5.000       1719.    
     MULTIPLE LAYERS AND PROPORTIONS :    2, 0.43       3, 0.57
   309 3197-65-361     65    361.0       1745.    
     MULTIPLE LAYERS AND PROPORTIONS :    2, 0.43       3, 0.57
   310 3197-71-355     71    355.0       1748.    
     MULTIPLE LAYERS AND PROPORTIONS :    2, 0.43       3, 0.57
   311 3170-16-348     16    348.0       1732.    
     MULTIPLE LAYERS AND PROPORTIONS :    1, 0.13       2, 0.87
   312 3170-21-342     21    342.0       1703.    
   313 3170-38-6       38    6.000       1681.    
   314 3170-42-351     42    351.0       1737.    
   315 3170-48-348     48    348.0       1694.    
   316 3170-55-354     55    354.0       1703.    
   317 3170-61-5       61    5.000       1725.    
   318 3170-65-361     65    361.0       1751.    
   319 3170-71-355     71    355.0       1754.    
   320 3139-21-343     21    343.0       1698.    
   321 3139-71-355     71    355.0       1747.    
   322 3143-17-5       17    5.000       1732.    
   323 3143-22-37      22    37.00       1708.    
   324 3143-27-31      27    31.00       1695.    
   325 3143-55-354     55    354.0       1694.    
   326 3143-61-5       61    5.000       1720.    
   327 3143-65-361     65    361.0       1757.    
   328 3143-71-355     71    355.0       1760.    
   329 3166-1-1         1   1.0000       1748.    
 Observation within a steady-state time step has been moved to the end of the time step.
     MULTIPLE LAYERS AND PROPORTIONS :    2, 0.54       3, 0.46
   330 3166-11-335     11    335.0       1738.    
     MULTIPLE LAYERS AND PROPORTIONS :    2, 0.54       3, 0.46
   331 3166-21-335     21    335.0       1680.    
     MULTIPLE LAYERS AND PROPORTIONS :    2, 0.54       3, 0.46
   332 3100-16-338     16    338.0       1730.    
   333 3100-21-335     21    335.0       1703.    
     MULTIPLE LAYERS AND PROPORTIONS :    2, 0.76       3, 0.24
   334 3100-43-60      43    60.00       1625.    
   335 3100-55-354     55    354.0       1652.    
   336 3100-61-5       61    5.000       1659.    
     MULTIPLE LAYERS AND PROPORTIONS :    2, 0.76       3, 0.24
   337 3100-66-20      66    20.00       1692.    
     MULTIPLE LAYERS AND PROPORTIONS :    2, 0.76       3, 0.24
   338 3100-71-355     71    355.0       1709.    
     MULTIPLE LAYERS AND PROPORTIONS :    2, 0.76       3, 0.24
   339 2939-42-351     42    351.0       1635.    
   340 2939-61-5       61    5.000       1669.    
   341 2939-70-352     70    352.0       1725.    
   342 2939-71-355     71    355.0       1727.    
   343 3099-21-335     21    335.0       1697.    
     MULTIPLE LAYERS AND PROPORTIONS :    2, 0.38       3, 0.62
   344 3099-61-5       61    5.000       1665.    
     MULTIPLE LAYERS AND PROPORTIONS :    2, 0.38       3, 0.62
   345 3099-66-20      66    20.00       1698.    
     MULTIPLE LAYERS AND PROPORTIONS :    2, 0.38       3, 0.62
   346 3099-71-355     71    355.0       1723.    
     MULTIPLE LAYERS AND PROPORTIONS :    2, 0.38       3, 0.62
   347 3113-1-59        1    59.00       1773.    
 Observation within a steady-state time step has been moved to the end of the time step.
   348 3113-6-341       6    341.0       1768.    
   349 3113-12-362     12    362.0       1752.    
   350 3113-22-37      22    37.00       1703.    
   351 3113-27-31      27    31.00       1697.    
   352 3113-37-341     37    341.0       1653.    
   353 3113-42-349     42    349.0       1684.    
   354 3113-48-341     48    341.0       1664.    
   355 3113-55-354     55    354.0       1694.    
   356 3113-60-319     60    319.0       1716.    
   357 3113-65-298     65    298.0       1744.    
   358 3113-71-355     71    355.0       1757.    
   359 3097-12-170     12    170.0       1744.    
   360 3097-17-5       17    5.000       1723.    
   361 3097-42-351     42    351.0       1664.    
   362 3097-48-348     48    348.0       1679.    
   363 3097-55-354     55    354.0       1696.    
   364 3097-61-5       61    5.000       1718.    
   365 3097-65-361     65    361.0       1750.    
   366 3097-71-355     71    355.0       1760.    
   367 3095-42-351     42    351.0       1666.    
   368 3095-48-348     48    348.0       1682.    
   369 3095-55-354     55    354.0       1698.    
   370 3095-61-5       61    5.000       1720.    
   371 3095-65-361     65    361.0       1752.    
   372 3095-71-355     71    355.0       1761.    
   373 3096-8-283       8    283.0       1773.    
     MULTIPLE LAYERS AND PROPORTIONS :    1, 0.20       2, 0.80
   374 3096-17-5       17    5.000       1736.    
     MULTIPLE LAYERS AND PROPORTIONS :    1, 0.20       2, 0.80
   375 3096-21-335     21    335.0       1708.    
   376 3135-8-282       8    282.0       1775.    
     MULTIPLE LAYERS AND PROPORTIONS :    1, 0.11       2, 0.89
   377 3135-11-355     11    355.0       1766.    
     MULTIPLE LAYERS AND PROPORTIONS :    1, 0.11       2, 0.89
   378 3135-16-349     16    349.0       1739.    
     MULTIPLE LAYERS AND PROPORTIONS :    1, 0.11       2, 0.89
   379 3135-21-312     21    312.0       1708.    
   380 3135-26-292     26    292.0       1680.    
   381 3135-38-5       38    5.000       1641.    
   382 3135-48-337     48    337.0       1678.    
   383 3135-56-19      56    19.00       1700.    
   384 3135-61-60      61    60.00       1717.    
   385 3121-55-354     55    354.0       1713.    
   386 3121-61-5       61    5.000       1724.    
   387 3121-66-20      66    20.00       1760.    
   388 3121-71-365     71    365.0       1772.    
   389 3059-10-57      10    57.00       1779.    
   390 3059-17-5       17    5.000       1744.    
   391 3059-27-31      27    31.00       1693.    
   392 3059-37-33      37    33.00       1717.    
   393 3059-42-349     42    349.0       1681.    
   394 3059-48-342     48    342.0       1700.    
   395 3059-56-20      56    20.00       1720.    
   396 3059-60-319     60    319.0       1742.    
   397 3059-65-301     65    301.0       1777.    
   398 3059-71-365     71    365.0       1787.    
   399 3078-21-335     21    335.0       1709.    
   400 3080-11-297     11    297.0       1762.    
     MULTIPLE LAYERS AND PROPORTIONS :    1, 0.12       2, 0.88
   401 3075-56-20      56    20.00       1716.    
   402 3089-2-339       2    339.0       1774.    
   403 3089-6-341       6    341.0       1772.    
   404 3089-12-362     12    362.0       1763.    
   405 3089-16-313     16    313.0       1745.    
   406 3089-42-351     42    351.0       1693.    
   407 3089-65-361     65    361.0       1743.    
   408 3089-71-355     71    355.0       1755.    
   409 3053-11-297     11    297.0       1767.    
   410 3053-16-349     16    349.0       1741.    
   411 3053-22-37      22    37.00       1710.    
   412 3053-32-85      32    85.00       1668.    
   413 3053-42-351     42    351.0       1660.    
   414 3053-48-348     48    348.0       1676.    
   415 3053-55-353     55    353.0       1689.    
   416 3053-61-5       61    5.000       1706.    
   417 3053-65-361     65    361.0       1735.    
   418 3053-71-355     71    355.0       1752.    
   419 3050-55-353     55    353.0       1689.    
   420 3050-61-5       61    5.000       1706.    
   421 3050-65-361     65    361.0       1735.    
   422 3050-71-355     71    355.0       1752.    
   423 3076-37-33      37    33.00       1618.    
   424 3076-42-349     42    349.0       1656.    
   425 3076-48-342     48    342.0       1676.    
   426 3076-56-23      56    23.00       1695.    
   427 3076-61-60      61    60.00       1701.    
   428 3076-66-24      66    24.00       1742.    
   429 3077-55-354     55    354.0       1659.    
   430 3077-61-5       61    5.000       1665.    
   431 3077-66-20      66    20.00       1690.    
   432 3077-71-355     71    355.0       1718.    
   433 3065-48-348     48    348.0       1663.    
     MULTIPLE LAYERS AND PROPORTIONS :    2, 0.27       3, 0.73
   434 3021-1-107       1    107.0       1784.    
 Observation within a steady-state time step has been moved to the end of the time step.
   435 3021-7-3         7    3.000       1782.    
   436 3020-7-3         7    3.000       1781.    
   437 3020-12-59      12    59.00       1775.    
   438 3020-16-314     16    314.0       1755.    
   439 3020-22-37      22    37.00       1731.    
   440 3020-27-31      27    31.00       1697.    
   441 2989-12-59      12    59.00       1780.    
   442 2995-16-313     16    313.0       1748.    
   443 2995-22-37      22    37.00       1734.    
   444 2995-27-31      27    31.00       1719.    
   445 2995-32-85      32    85.00       1723.    
   446 3201-48-300     48    300.0       1676.    
   447 3201-55-321     55    321.0       1685.    
   448 3201-60-312     60    312.0       1692.    
   449 3201-65-363     65    363.0       1706.    
   450 3201-71-10      71   10.000       1726.    
   451 3202-48-300     48    300.0       1678.    
   452 3202-55-321     55    321.0       1687.    
   453 3202-60-312     60    312.0       1696.    
   454 3202-65-363     65    363.0       1720.    
   455 3202-71-10      71   10.000       1745.    
   456 3200-21-335     21    335.0       1763.    
   457 3200-32-6       32    6.000       1728.    
   458 3200-36-351     36    351.0       1712.    
   459 3200-49-54      49    54.00       1695.    
   460 3200-56-24      56    24.00       1699.    
   461 3200-60-319     60    319.0       1706.    
   462 3200-65-298     65    298.0       1718.    
   463 3200-71-365     71    365.0       1736.    
   464 3154-1-337       1    337.0       1791.    
 Observation within a steady-state time step has been moved to the end of the time step.
     MULTIPLE LAYERS AND PROPORTIONS :    1, 0.12       2, 0.88
   465 3154-6-286       6    286.0       1782.    
     MULTIPLE LAYERS AND PROPORTIONS :    1, 0.12       2, 0.88
   466 3154-11-298     11    298.0       1778.    
     MULTIPLE LAYERS AND PROPORTIONS :    1, 0.12       2, 0.88
   467 3154-16-358     16    358.0       1742.    
     MULTIPLE LAYERS AND PROPORTIONS :    1, 0.12       2, 0.88
   468 3154-21-343     21    343.0       1712.    
   469 3154-32-85      32    85.00       1660.    
   470 3154-37-33      37    33.00       1649.    
   471 3154-42-349     42    349.0       1651.    
   472 3150-48-337     48    337.0       1681.    
   473 3150-56-23      56    23.00       1704.    
   474 3150-60-319     60    319.0       1720.    
   475 3150-65-298     65    298.0       1752.    
   476 3150-71-11      71    11.00       1775.    
   477 3150-71-365     71    365.0       1776.    
   478 3158-12-85      12    85.00       1766.    
   479 3158-16-342     16    342.0       1740.    
   480 3158-21-346     21    346.0       1712.    
   481 3158-56-25      56    25.00       1700.    
   482 3158-61-55      61    55.00       1720.    
   483 3158-66-19      66    19.00       1753.    
   484 3179-8-1         8   1.0000       1777.    
     MULTIPLE LAYERS AND PROPORTIONS :    1, 0.12       2, 0.88
   485 3151-12-33      12    33.00       1773.    
   486 3151-16-342     16    342.0       1740.    
   487 3151-21-346     21    346.0       1717.    
   488 3151-56-23      56    23.00       1705.    
   489 3151-61-55      61    55.00       1725.    
   490 3151-66-18      66    18.00       1758.    
   491 3167-34-152     34    152.0       1703.    
   492 3103-38-3       38    3.000       1652.    
   493 3101-66-24      66    24.00       1760.    
     MULTIPLE LAYERS AND PROPORTIONS :    2, 0.76       3, 0.24
   494 3105-8-1         8   1.0000       1789.    
     MULTIPLE LAYERS AND PROPORTIONS :    1, 0.19       2, 0.81
   495 3105-56-23      56    23.00       1710.    
   496 3105-61-55      61    55.00       1731.    
   497 3105-66-18      66    18.00       1767.    
   498 3142-12-1       12   1.0000       1778.    
     MULTIPLE LAYERS AND PROPORTIONS :    1, 0.43       2, 0.57
   499 3142-16-342     16    342.0       1744.    
     MULTIPLE LAYERS AND PROPORTIONS :    1, 0.43       2, 0.57
   500 3142-56-24      56    24.00       1707.    
   501 3142-61-55      61    55.00       1726.    
   502 3142-66-19      66    19.00       1759.    
   503 3138-21-346     21    346.0       1718.    
   504 3138-56-24      56    24.00       1708.    
   505 3138-61-55      61    55.00       1727.    
   506 3138-66-19      66    19.00       1760.    
   507 3119-48-337     48    337.0       1687.    
   508 3119-56-23      56    23.00       1712.    
   509 3119-61-60      61    60.00       1732.    
   510 3119-66-18      66    18.00       1768.    
   511 3130-2-305       2    305.0       1828.    
   512 3108-8-32        8    32.00       1790.    
     MULTIPLE LAYERS AND PROPORTIONS :    1, 0.45       2, 0.55
   513 3104-56-26      56    26.00       1723.    
   514 3104-61-55      61    55.00       1744.    
   515 3104-66-19      66    19.00       1777.    
   516 3102-56-26      56    26.00       1724.    
     MULTIPLE LAYERS AND PROPORTIONS :    2, 0.93       3, 0.07
   517 3102-61-55      61    55.00       1744.    
     MULTIPLE LAYERS AND PROPORTIONS :    2, 0.93       3, 0.07
   518 3102-66-19      66    19.00       1776.    
     MULTIPLE LAYERS AND PROPORTIONS :    2, 0.93       3, 0.07
   519 3140-48-300     48    300.0       1690.    
   520 3141-48-300     48    300.0       1693.    
   521 3061-66-19      66    19.00       1799.    
     MULTIPLE LAYERS AND PROPORTIONS :    2, 0.66       3, 0.34
   522 3085-1-337       1    337.0       1814.    
 Observation within a steady-state time step has been moved to the end of the time step.
     MULTIPLE LAYERS AND PROPORTIONS :    1, 0.27       2, 0.57       3, 0.16
   523 3085-6-286       6    286.0       1805.    
     MULTIPLE LAYERS AND PROPORTIONS :    1, 0.27       2, 0.57       3, 0.16
   524 3085-11-361     11    361.0       1794.    
     MULTIPLE LAYERS AND PROPORTIONS :    1, 0.27       2, 0.57       3, 0.16
   525 3085-16-350     16    350.0       1764.    
     MULTIPLE LAYERS AND PROPORTIONS :    1, 0.27       2, 0.57       3, 0.16
   526 3085-21-346     21    346.0       1739.    
     MULTIPLE LAYERS AND PROPORTIONS :    2, 0.84       3, 0.16
   527 3064-56-25      56    25.00       1746.    
   528 3083-56-23      56    23.00       1725.    
     MULTIPLE LAYERS AND PROPORTIONS :    2, 0.60       3, 0.40
   529 3083-61-55      61    55.00       1747.    
     MULTIPLE LAYERS AND PROPORTIONS :    2, 0.60       3, 0.40
   530 3083-66-18      66    18.00       1785.    
     MULTIPLE LAYERS AND PROPORTIONS :    2, 0.60       3, 0.40
   531 3084-10-60      10    60.00       1787.    
     MULTIPLE LAYERS AND PROPORTIONS :    1, 0.15       2, 0.85
   532 3084-48-341     48    341.0       1690.    
   533 3084-56-23      56    23.00       1716.    
   534 3084-61-55      61    55.00       1737.    
   535 3084-66-18      66    18.00       1775.    
   536 3081-48-341     48    341.0       1690.    
   537 3081-56-23      56    23.00       1714.    
   538 3081-61-55      61    55.00       1736.    
   539 3081-66-18      66    18.00       1774.    
   540 3079-1-365       1    365.0       1791.    
 Observation within a steady-state time step has been moved to the end of the time step.
   541 3058-48-337     48    337.0       1697.    
   542 3058-56-23      56    23.00       1722.    
   543 3058-61-55      61    55.00       1745.    
   544 3058-66-18      66    18.00       1782.    
   545 3086-12-247     12    247.0       1778.    
     MULTIPLE LAYERS AND PROPORTIONS :    1, 0.43       2, 0.57
   546 3107-1-365       1    365.0       1784.    
 Observation within a steady-state time step has been moved to the end of the time step.
   547 3107-11-334     11    334.0       1774.    
   548 3040-10-32      10    32.00       1777.    
   549 3017-71-5       71    5.000       1785.    
   550 3017-71-365     71    365.0       1787.    
   551 3015-55-354     55    354.0       1715.    
   552 3015-71-5       71    5.000       1790.    
   553 3015-71-365     71    365.0       1792.    
   554 3054-10-32      10    32.00       1780.    
   555 3046-12-247     12    247.0       1759.    
   556 3046-16-350     16    350.0       1748.    
   557 3046-21-343     21    343.0       1714.    
   558 3046-32-8       32    8.000       1684.    
   559 3046-36-87      36    87.00       1671.    
   560 3036-11-18      11    18.00       1788.    
     MULTIPLE LAYERS AND PROPORTIONS :    1, 0.22       2, 0.78
   561 3036-16-350     16    350.0       1755.    
     MULTIPLE LAYERS AND PROPORTIONS :    1, 0.22       2, 0.78
   562 3036-21-335     21    335.0       1722.    
     MULTIPLE LAYERS AND PROPORTIONS :    1, 0.22       2, 0.78
   563 3030-12-247     12    247.0       1770.    
     MULTIPLE LAYERS AND PROPORTIONS :    1, 0.19       2, 0.81
   564 3030-16-350     16    350.0       1757.    
     MULTIPLE LAYERS AND PROPORTIONS :    1, 0.19       2, 0.81
   565 3030-21-346     21    346.0       1725.    
     MULTIPLE LAYERS AND PROPORTIONS :    1, 0.19       2, 0.81
   566 3038-1-337       1    337.0       1816.    
 Observation within a steady-state time step has been moved to the end of the time step.
     MULTIPLE LAYERS AND PROPORTIONS :    1, 0.19       2, 0.77       3, 0.04
   567 3038-6-286       6    286.0       1808.    
     MULTIPLE LAYERS AND PROPORTIONS :    1, 0.19       2, 0.77       3, 0.04
   568 3038-11-338     11    338.0       1796.    
     MULTIPLE LAYERS AND PROPORTIONS :    1, 0.19       2, 0.77       3, 0.04
   569 3038-16-350     16    350.0       1765.    
     MULTIPLE LAYERS AND PROPORTIONS :    1, 0.19       2, 0.77       3, 0.04
   570 3038-21-312     21    312.0       1732.    
     MULTIPLE LAYERS AND PROPORTIONS :    1, 0.19       2, 0.77       3, 0.04
   571 3038-42-349     42    349.0       1678.    
     MULTIPLE LAYERS AND PROPORTIONS :    1, 0.19       2, 0.77       3, 0.04
   572 3035-48-337     48    337.0       1709.    
     MULTIPLE LAYERS AND PROPORTIONS :    2, 0.33       3, 0.67
   573 3035-56-23      56    23.00       1737.    
     MULTIPLE LAYERS AND PROPORTIONS :    2, 0.33       3, 0.67
   574 3035-60-319     60    319.0       1755.    
     MULTIPLE LAYERS AND PROPORTIONS :    2, 0.33       3, 0.67
   575 3035-66-18      66    18.00       1790.    
     MULTIPLE LAYERS AND PROPORTIONS :    2, 0.33       3, 0.67
   576 3035-71-11      71    11.00       1802.    
     MULTIPLE LAYERS AND PROPORTIONS :    2, 0.33       3, 0.67
   577 3035-71-365     71    365.0       1804.    
     MULTIPLE LAYERS AND PROPORTIONS :    2, 0.33       3, 0.67
   578 3007-12-76      12    76.00       1799.    
     MULTIPLE LAYERS AND PROPORTIONS :    1, 0.16       2, 0.76       3, 0.08
   579 3007-48-337     48    337.0       1714.    
     MULTIPLE LAYERS AND PROPORTIONS :    2, 0.93       3, 0.07
   580 3007-56-23      56    23.00       1743.    
     MULTIPLE LAYERS AND PROPORTIONS :    2, 0.93       3, 0.07
   581 3007-61-55      61    55.00       1764.    
   582 3007-66-18      66    18.00       1797.    
   583 3032-10-32      10    32.00       1837.    
     MULTIPLE LAYERS AND PROPORTIONS :    1, 0.10       2, 0.36       3, 0.54
   584 3032-48-337     48    337.0       1721.    
     MULTIPLE LAYERS AND PROPORTIONS :    1, 0.10       2, 0.36       3, 0.54
   585 3032-56-23      56    23.00       1749.    
     MULTIPLE LAYERS AND PROPORTIONS :    1, 0.10       2, 0.36       3, 0.54
   586 3032-61-55      61    55.00       1769.    
     MULTIPLE LAYERS AND PROPORTIONS :    1, 0.10       2, 0.36       3, 0.54
   587 3032-66-27      66    27.00       1792.    
     MULTIPLE LAYERS AND PROPORTIONS :    1, 0.10       2, 0.36       3, 0.54
   588 3006-56-23      56    23.00       1745.    
   589 3006-61-55      61    55.00       1767.    
   590 3006-66-18      66    18.00       1801.    
   591 3005-10-60      10    60.00       1836.    
   592 3005-48-337     48    337.0       1770.    
   593 3005-56-23      56    23.00       1795.    
   594 3005-61-55      61    55.00       1805.    
   595 3005-66-18      66    18.00       1812.    
   596 3002-56-23      56    23.00       1794.    
   597 3002-61-55      61    55.00       1805.    
   598 3002-66-19      66    19.00       1810.    
   599 3182-48-337     48    337.0       1674.    
   600 3182-56-19      56    19.00       1692.    
   601 3182-61-60      61    60.00       1708.    
   602 3182-66-27      66    27.00       1739.    
   603 3155-8-1         8   1.0000       1775.    
   604 3155-48-337     48    337.0       1676.    
   605 3155-56-19      56    19.00       1717.    
   606 3155-66-24      66    24.00       1748.    
   607 2695-43-60      43    60.00       1677.    
   608 2695-55-354     55    354.0       1712.    
   609 2695-61-7       61    7.000       1726.    
   610 2695-65-361     65    361.0       1770.    
   611 2695-71-5       71    5.000       1782.    
   612 2695-71-365     71    365.0       1784.    
   613 3037-48-364     48    364.0       1774.    
   614 3009-56-25      56    25.00       1908.    
   615 3009-61-55      61    55.00       1906.    
   616 3001-56-25      56    25.00       1910.    
   617 3001-61-55      61    55.00       1908.    
   618 3004-17-1       17   1.0000       2018.    
   619 3004-22-1       22   1.0000       2015.    
   620 3004-27-32      27    32.00       2001.    
   621 3004-37-36      37    36.00       2005.    
   622 3004-66-24      66    24.00       2001.    
   623 3004-71-57      71    57.00       1994.    
   624 3010-48-334     48    334.0       2113.    
   625 3010-56-27      56    27.00       2109.    
   626 3039-42-364     42    364.0       2228.    
   627 3039-48-335     48    335.0       2245.    
   628 3039-56-25      56    25.00       2227.    
   629 3019-31-297     31    297.0       2244.    
   630 2997-36-32      36    32.00       2229.    
   631 2997-43-41      43    41.00       2230.    
   632 2997-48-334     48    334.0       2229.    
   633 3012-31-339     31    339.0       2316.    
   634 3016-8-222       8    222.0       2284.    
   635 3016-11-53      11    53.00       2300.    
   636 3014-42-365     42    365.0       2297.    
   637 3014-48-334     48    334.0       2299.    
   638 3014-56-24      56    24.00       2299.    
   639 3014-61-59      61    59.00       2298.    
   640 3014-66-25      66    25.00       2291.    
   641 3014-71-54      71    54.00       2278.    
   642 3013-43-6       43    6.000       2316.    
   643 3013-48-335     48    335.0       2319.    
   644 3013-56-26      56    26.00       2319.    
   645 3013-66-28      66    28.00       2310.    
   646 3041-66-33      66    33.00       2468.    
   647 3041-71-61      71    61.00       2459.    
   648 3055-11-56      11    56.00       2467.    
   649 3055-43-6       43    6.000       2457.    
   650 3055-48-335     48    335.0       2469.    
   651 3055-56-19      56    19.00       2469.    
   652 3251-48-334     48    334.0       3019.    
   653 3246-56-26      56    26.00       2986.    
   654 3248-16-116     16    116.0       2955.    
   655 3248-21-116     21    116.0       2975.    
   656 3248-26-125     26    125.0       2959.    
   657 3248-31-111     31    111.0       2961.    
   658 3248-37-36      37    36.00       2957.    
   659 3248-43-81      43    81.00       2972.    
   660 3248-48-334     48    334.0       2988.    
   661 3248-56-26      56    26.00       2987.    
   662 3248-71-61      71    61.00       2965.    
   663 3242-56-26      56    26.00       2985.    
     MULTIPLE LAYERS AND PROPORTIONS :    2, 0.82       3, 0.18
   664 3241-61-61      61    61.00       2998.    
   665 3241-66-18      66    18.00       2981.    
   666 3241-71-61      71    61.00       3005.    
   667 3235-71-64      71    64.00       3012.    
   668 3221-66-33      66    33.00       2925.    
   669 3262-42-335     42    335.0       2939.    
   670 3262-49-8       49    8.000       2944.    
   671 3262-55-342     55    342.0       2943.    
   672 3262-61-35      61    35.00       2939.    
   673 3262-66-33      66    33.00       2931.    
   674 3262-71-323     71    323.0       2925.    
   675 3256-27-125     27    125.0       2931.    
     MULTIPLE LAYERS AND PROPORTIONS :    2, 0.47       3, 0.53
   676 3256-37-36      37    36.00       2916.    
     MULTIPLE LAYERS AND PROPORTIONS :    2, 0.47       3, 0.53
   677 3256-48-356     48    356.0       2938.    
     MULTIPLE LAYERS AND PROPORTIONS :    2, 0.47       3, 0.53
   678 3256-55-342     55    342.0       2934.    
     MULTIPLE LAYERS AND PROPORTIONS :    2, 0.47       3, 0.53
   679 3256-66-33      66    33.00       2926.    
     MULTIPLE LAYERS AND PROPORTIONS :    2, 0.47       3, 0.53
   680 3256-71-323     71    323.0       2917.    
     MULTIPLE LAYERS AND PROPORTIONS :    2, 0.47       3, 0.53
   681 3252-43-81      43    81.00       2932.    
   682 3252-48-336     48    336.0       2934.    
   683 3252-56-27      56    27.00       2930.    
   684 3252-60-323     60    323.0       2929.    
   685 3252-65-299     65    299.0       2923.    
   686 3252-71-365     71    365.0       2915.    
   687 3253-55-342     55    342.0       2930.    
   688 3253-60-335     60    335.0       2927.    
   689 3253-66-34      66    34.00       2925.    
   690 3253-71-323     71    323.0       2917.    
   691 3263-16-299     16    299.0       2905.    
     MULTIPLE LAYERS AND PROPORTIONS :    2, 0.70       3, 0.30
   692 3263-26-127     26    127.0       2904.    
     MULTIPLE LAYERS AND PROPORTIONS :    2, 0.70       3, 0.30
   693 3263-43-60      43    60.00       2902.    
     MULTIPLE LAYERS AND PROPORTIONS :    2, 0.70       3, 0.30
   694 3263-48-356     48    356.0       2911.    
     MULTIPLE LAYERS AND PROPORTIONS :    2, 0.70       3, 0.30
   695 3263-56-24      56    24.00       2900.    
     MULTIPLE LAYERS AND PROPORTIONS :    2, 0.70       3, 0.30
   696 3263-66-33      66    33.00       2901.    
     MULTIPLE LAYERS AND PROPORTIONS :    2, 0.70       3, 0.30
   697 3263-71-365     71    365.0       2895.    
     MULTIPLE LAYERS AND PROPORTIONS :    2, 0.70       3, 0.30
   698 3224-56-27      56    27.00       2930.    
   699 3209-33-314     33    314.0       2882.    
   700 3210-43-81      43    81.00       2884.    
     MULTIPLE LAYERS AND PROPORTIONS :    2, 0.11       3, 0.89
   701 3210-48-336     48    336.0       2887.    
     MULTIPLE LAYERS AND PROPORTIONS :    2, 0.11       3, 0.89
   702 3210-56-26      56    26.00       2894.    
     MULTIPLE LAYERS AND PROPORTIONS :    2, 0.11       3, 0.89
   703 3195-33-32      33    32.00       2815.    
     MULTIPLE LAYERS AND PROPORTIONS :    2, 0.29       3, 0.71
   704 3180-34-152     34    152.0       2820.    
     MULTIPLE LAYERS AND PROPORTIONS :    2, 0.08       3, 0.92
   705 3184-66-28      66    28.00       2857.    
   706 3184-71-62      71    62.00       2852.    
   707 3186-66-28      66    28.00       2856.    
   708 3186-71-60      71    60.00       2852.    
   709 3183-66-31      66    31.00       2872.    
   710 3207-43-7       43    7.000       2948.    
   711 3207-48-334     48    334.0       2964.    
   712 3207-56-26      56    26.00       2976.    
   713 3190-43-7       43    7.000       2890.    
   714 3190-48-336     48    336.0       2901.    
   715 3190-56-25      56    25.00       2904.    
   716 3194-71-62      71    62.00       2908.    
   717 3192-66-34      66    34.00       2931.    
   718 3192-71-60      71    60.00       2929.    
   719 3187-43-7       43    7.000       2909.    
     MULTIPLE LAYERS AND PROPORTIONS :    2, 0.48       3, 0.52
   720 3187-48-334     48    334.0       2917.    
     MULTIPLE LAYERS AND PROPORTIONS :    2, 0.48       3, 0.52
   721 3203-71-62      71    62.00       2945.    
   722 3165-71-62      71    62.00       2841.    
   723 3148-43-7       43    7.000       2842.    
     MULTIPLE LAYERS AND PROPORTIONS :    2, 0.20       3, 0.80
   724 3157-71-62      71    62.00       2841.    
   725 3152-71-62      71    62.00       2846.    
   726 3169-43-8       43    8.000       2834.    
   727 3169-48-336     48    336.0       2821.    
   728 3169-66-34      66    34.00       2822.    
   729 3169-71-61      71    61.00       2805.    
   730 3168-43-7       43    7.000       2830.    
     MULTIPLE LAYERS AND PROPORTIONS :    2, 0.70       3, 0.30
   731 3168-56-26      56    26.00       2830.    
     MULTIPLE LAYERS AND PROPORTIONS :    2, 0.70       3, 0.30
   732 3168-66-34      66    34.00       2829.    
     MULTIPLE LAYERS AND PROPORTIONS :    2, 0.70       3, 0.30
   733 3156-27-289     27    289.0       2792.    
     MULTIPLE LAYERS AND PROPORTIONS :    2, 0.40       3, 0.60
   734 3144-43-7       43    7.000       2755.    
     MULTIPLE LAYERS AND PROPORTIONS :    2, 0.26       3, 0.74
   735 3144-56-25      56    25.00       2765.    
     MULTIPLE LAYERS AND PROPORTIONS :    2, 0.26       3, 0.74
   736 3144-66-34      66    34.00       2744.    
     MULTIPLE LAYERS AND PROPORTIONS :    2, 0.26       3, 0.74
   737 3144-71-60      71    60.00       2734.    
     MULTIPLE LAYERS AND PROPORTIONS :    2, 0.26       3, 0.74
   738 3110-43-5       43    5.000       2722.    
   739 3110-48-335     48    335.0       2730.    
   740 3136-43-7       43    7.000       2851.    
     MULTIPLE LAYERS AND PROPORTIONS :    2, 0.27       3, 0.73
   741 3136-48-334     48    334.0       2861.    
     MULTIPLE LAYERS AND PROPORTIONS :    2, 0.27       3, 0.73
   742 3136-56-26      56    26.00       2868.    
     MULTIPLE LAYERS AND PROPORTIONS :    2, 0.27       3, 0.73
   743 3136-66-35      66    35.00       2846.    
     MULTIPLE LAYERS AND PROPORTIONS :    2, 0.27       3, 0.73
   744 3136-71-61      71    61.00       2827.    
     MULTIPLE LAYERS AND PROPORTIONS :    2, 0.27       3, 0.73
   745 3093-5-82        5    82.00       2709.    
   746 3093-6-97        6    97.00       2709.    
   747 3093-16-133     16    133.0       2692.    
   748 3093-26-124     26    124.0       2688.    
   749 3093-37-37      37    37.00       2684.    
   750 3093-43-7       43    7.000       2727.    
   751 3094-48-337     48    337.0       2811.    
     MULTIPLE LAYERS AND PROPORTIONS :    2, 0.48       3, 0.52
   752 3094-66-33      66    33.00       2785.    
     MULTIPLE LAYERS AND PROPORTIONS :    2, 0.48       3, 0.52
   753 3094-71-61      71    61.00       2774.    
     MULTIPLE LAYERS AND PROPORTIONS :    2, 0.48       3, 0.52
   754 3057-48-337     48    337.0       2564.    
   755 3057-56-25      56    25.00       2558.    
   756 3011-48-337     48    337.0       2533.    
     MULTIPLE LAYERS AND PROPORTIONS :    2, 0.55       3, 0.45
   757 3011-66-33      66    33.00       2460.    
     MULTIPLE LAYERS AND PROPORTIONS :    2, 0.55       3, 0.45
   758 3011-71-61      71    61.00       2447.    
     MULTIPLE LAYERS AND PROPORTIONS :    2, 0.55       3, 0.45
   759 3026-48-337     48    337.0       2520.    
     MULTIPLE LAYERS AND PROPORTIONS :    2, 0.63       3, 0.37
   760 3026-56-25      56    25.00       2554.    
     MULTIPLE LAYERS AND PROPORTIONS :    2, 0.63       3, 0.37
   761 2999-16-361     16    361.0       2530.    
     MULTIPLE LAYERS AND PROPORTIONS :    2, 0.29       3, 0.71
   762 2999-22-31      22    31.00       2533.    
     MULTIPLE LAYERS AND PROPORTIONS :    2, 0.29       3, 0.71
   763 2999-27-11      27    11.00       2522.    
     MULTIPLE LAYERS AND PROPORTIONS :    2, 0.29       3, 0.71
   764 2999-31-351     31    351.0       2526.    
     MULTIPLE LAYERS AND PROPORTIONS :    2, 0.29       3, 0.71
   765 2999-37-343     37    343.0       2520.    
     MULTIPLE LAYERS AND PROPORTIONS :    2, 0.29       3, 0.71
   766 2999-56-25      56    25.00       2568.    
     MULTIPLE LAYERS AND PROPORTIONS :    2, 0.29       3, 0.71
   767 2999-66-33      66    33.00       2500.    
     MULTIPLE LAYERS AND PROPORTIONS :    2, 0.29       3, 0.71
   768 2999-71-61      71    61.00       2475.    
     MULTIPLE LAYERS AND PROPORTIONS :    2, 0.29       3, 0.71
   769 2994-43-5       43    5.000       2561.    
   770 2994-56-25      56    25.00       2576.    
   771 3029-48-336     48    336.0       2649.    
   772 3029-56-26      56    26.00       2651.    
   773 3029-66-33      66    33.00       2616.    
   774 3008-48-336     48    336.0       2686.    
   775 3008-56-26      56    26.00       2693.    
   776 2963-1-107       1    107.0       1799.    
 Observation within a steady-state time step has been moved to the end of the time step.
   777 2948-17-4       17    4.000       1766.    
   778 2982-48-348     48    348.0       1665.    
   779 2982-55-354     55    354.0       1675.    
   780 2982-61-7       61    7.000       1679.    
   781 2982-66-55      66    55.00       1695.    
   782 2982-71-355     71    355.0       1716.    
   783 2968-71-365     71    365.0       1752.    
   784 2951-42-351     42    351.0       1676.    
   785 2951-48-348     48    348.0       1682.    
   786 2951-55-354     55    354.0       1690.    
   787 2951-61-5       61    5.000       1696.    
   788 2951-66-20      66    20.00       1714.    
   789 2951-71-355     71    355.0       1736.    
   790 2950-12-335     12    335.0       1795.    
   791 2950-55-354     55    354.0       1695.    
   792 2945-1-107       1    107.0       1802.    
 Observation within a steady-state time step has been moved to the end of the time step.
   793 2945-7-3         7    3.000       1799.    
   794 2945-10-320     10    320.0       1798.    
   795 2902-42-351     42    351.0       1680.    
   796 2902-48-348     48    348.0       1690.    
   797 2902-55-354     55    354.0       1697.    
   798 2902-61-5       61    5.000       1703.    
   799 2902-66-20      66    20.00       1715.    
   800 2902-71-355     71    355.0       1732.    
   801 2906-12-332     12    332.0       1816.    
   802 2906-17-4       17    4.000       1787.    
     MULTIPLE LAYERS AND PROPORTIONS :    2, 0.77       3, 0.23
   803 2906-22-34      22    34.00       1763.    
     MULTIPLE LAYERS AND PROPORTIONS :    2, 0.77       3, 0.23
   804 2906-32-85      32    85.00       1709.    
   805 2906-37-33      37    33.00       1693.    
     MULTIPLE LAYERS AND PROPORTIONS :    2, 0.77       3, 0.23
   806 2906-48-365     48    365.0       1698.    
     MULTIPLE LAYERS AND PROPORTIONS :    2, 0.77       3, 0.23
   807 2906-55-354     55    354.0       1704.    
     MULTIPLE LAYERS AND PROPORTIONS :    2, 0.77       3, 0.23
   808 2906-61-5       61    5.000       1712.    
     MULTIPLE LAYERS AND PROPORTIONS :    2, 0.77       3, 0.23
   809 2906-66-20      66    20.00       1724.    
     MULTIPLE LAYERS AND PROPORTIONS :    2, 0.77       3, 0.23
   810 2906-71-365     71    365.0       1744.    
     MULTIPLE LAYERS AND PROPORTIONS :    2, 0.77       3, 0.23
   811 2922-16-313     16    313.0       1748.    
   812 2922-22-34      22    34.00       1736.    
   813 2922-27-13      27    13.00       1727.    
   814 2559-17-6       17    6.000       1766.    
     MULTIPLE LAYERS AND PROPORTIONS :    1, 0.19       2, 0.18       3, 0.63
   815 2559-42-351     42    351.0       1729.    
     MULTIPLE LAYERS AND PROPORTIONS :    2, 0.37       3, 0.63
   816 2559-48-348     48    348.0       1727.    
     MULTIPLE LAYERS AND PROPORTIONS :    2, 0.37       3, 0.63
   817 2559-56-3       56    3.000       1747.    
     MULTIPLE LAYERS AND PROPORTIONS :    2, 0.37       3, 0.63
   818 2559-66-20      66    20.00       1779.    
     MULTIPLE LAYERS AND PROPORTIONS :    1, 0.19       2, 0.18       3, 0.63
   819 2559-71-365     71    365.0       1791.    
     MULTIPLE LAYERS AND PROPORTIONS :    1, 0.19       2, 0.18       3, 0.63
   820 2920-1-109       1    109.0       1851.    
 Observation within a steady-state time step has been moved to the end of the time step.
   821 2901-42-351     42    351.0       1703.    
   822 2901-55-355     55    355.0       1725.    
   823 2901-61-5       61    5.000       1741.    
   824 2901-66-20      66    20.00       1777.    
   825 2901-71-365     71    365.0       1790.    
   826 2905-17-6       17    6.000       1766.    
     MULTIPLE LAYERS AND PROPORTIONS :    1, 0.55       2, 0.45
   827 2905-22-34      22    34.00       1752.    
     MULTIPLE LAYERS AND PROPORTIONS :    1, 0.55       2, 0.45
   828 2905-42-351     42    351.0       1705.    
   829 2905-71-50      71    50.00       1791.    
     MULTIPLE LAYERS AND PROPORTIONS :    1, 0.55       2, 0.45
   830 2905-71-365     71    365.0       1792.    
     MULTIPLE LAYERS AND PROPORTIONS :    1, 0.55       2, 0.45
   831 2907-42-351     42    351.0       1686.    
   832 2907-48-348     48    348.0       1710.    
   833 2907-55-355     55    355.0       1725.    
   834 2907-61-5       61    5.000       1744.    
   835 2907-66-20      66    20.00       1779.    
   836 2907-71-365     71    365.0       1793.    
   837 2900-17-6       17    6.000       1758.    
     MULTIPLE LAYERS AND PROPORTIONS :    1, 0.40       2, 0.60
   838 2900-56-20      56    20.00       1729.    
   839 2900-66-26      66    26.00       1782.    
   840 2874-3-290       3    290.0       1828.    
   841 2838-3-1         3   1.0000       1817.    
   842 2809-16-354     16    354.0       1803.    
     MULTIPLE LAYERS AND PROPORTIONS :    2, 0.14       3, 0.86
   843 2788-1-105       1    105.0       1834.    
 Observation within a steady-state time step has been moved to the end of the time step.
   844 2788-7-3         7    3.000       1834.    
   845 2788-11-311     11    311.0       1833.    
   846 2780-12-173     12    173.0       1827.    
   847 2780-16-354     16    354.0       1802.    
   848 2780-37-33      37    33.00       1689.    
   849 2779-16-354     16    354.0       1809.    
     MULTIPLE LAYERS AND PROPORTIONS :    2, 0.37       3, 0.63
   850 2779-22-34      22    34.00       1782.    
     MULTIPLE LAYERS AND PROPORTIONS :    2, 0.37       3, 0.63
   851 2777-16-354     16    354.0       1824.    
   852 2787-16-335     16    335.0       1815.    
     MULTIPLE LAYERS AND PROPORTIONS :    1, 0.66       2, 0.34
   853 2787-22-34      22    34.00       1802.    
   854 2787-34-351     34    351.0       1762.    
   855 2787-56-25      56    25.00       1747.    
   856 2787-61-52      61    52.00       1751.    
   857 2787-66-25      66    25.00       1760.    
   858 2783-17-6       17    6.000       1822.    
     MULTIPLE LAYERS AND PROPORTIONS :    1, 0.41       2, 0.59
   859 2783-56-25      56    25.00       1749.    
   860 2783-66-20      66    20.00       1780.    
     MULTIPLE LAYERS AND PROPORTIONS :    1, 0.41       2, 0.59
   861 2783-71-365     71    365.0       1781.    
     MULTIPLE LAYERS AND PROPORTIONS :    1, 0.41       2, 0.59
   862 2790-66-20      66    20.00       1764.    
     MULTIPLE LAYERS AND PROPORTIONS :    2, 0.52       3, 0.48
   863 2790-71-365     71    365.0       1774.    
     MULTIPLE LAYERS AND PROPORTIONS :    2, 0.52       3, 0.48
   864 2745-16-354     16    354.0       1825.    
     MULTIPLE LAYERS AND PROPORTIONS :    1, 0.42       2, 0.58
   865 2745-66-20      66    20.00       1767.    
     MULTIPLE LAYERS AND PROPORTIONS :    1, 0.42       2, 0.58
   866 2745-71-365     71    365.0       1771.    
     MULTIPLE LAYERS AND PROPORTIONS :    1, 0.42       2, 0.58
   867 2775-1-86        1    86.00       1838.    
 Observation within a steady-state time step has been moved to the end of the time step.
   868 2775-7-68        7    68.00       1836.    
   869 2731-48-348     48    348.0       1740.    
     MULTIPLE LAYERS AND PROPORTIONS :    2, 0.87       3, 0.13
   870 2731-55-354     55    354.0       1732.    
     MULTIPLE LAYERS AND PROPORTIONS :    2, 0.87       3, 0.13
   871 2731-61-5       61    5.000       1751.    
     MULTIPLE LAYERS AND PROPORTIONS :    2, 0.87       3, 0.13
   872 2731-66-20      66    20.00       1763.    
     MULTIPLE LAYERS AND PROPORTIONS :    2, 0.87       3, 0.13
   873 2731-71-365     71    365.0       1772.    
     MULTIPLE LAYERS AND PROPORTIONS :    2, 0.87       3, 0.13
   874 2771-22-21      22    21.00       1796.    
   875 2718-17-6       17    6.000       1829.    
     MULTIPLE LAYERS AND PROPORTIONS :    2, 0.69       3, 0.31
   876 2718-27-13      27    13.00       1784.    
     MULTIPLE LAYERS AND PROPORTIONS :    2, 0.69       3, 0.31
   877 2769-56-26      56    26.00       1705.    
   878 2769-61-55      61    55.00       1708.    
   879 2769-66-26      66    26.00       1715.    
   880 2758-7-344       7    344.0       1835.    
   881 2675-48-348     48    348.0       1693.    
   882 2675-61-4       61    4.000       1704.    
   883 2675-66-20      66    20.00       1711.    
   884 2675-71-365     71    365.0       1726.    
   885 2637-42-351     42    351.0       1723.    
   886 2637-48-349     48    349.0       1721.    
   887 2637-55-355     55    355.0       1721.    
   888 2637-61-4       61    4.000       1722.    
   889 2637-66-51      66    51.00       1728.    
   890 2637-71-365     71    365.0       1741.    
   891 2641-16-355     16    355.0       1822.    
     MULTIPLE LAYERS AND PROPORTIONS :    2, 0.07       3, 0.93
   892 2641-56-25      56    25.00       1716.    
     MULTIPLE LAYERS AND PROPORTIONS :    2, 0.07       3, 0.93
   893 2641-61-53      61    53.00       1720.    
     MULTIPLE LAYERS AND PROPORTIONS :    2, 0.07       3, 0.93
   894 2641-66-26      66    26.00       1717.    
     MULTIPLE LAYERS AND PROPORTIONS :    2, 0.07       3, 0.93
   895 2640-42-351     42    351.0       1705.    
   896 2640-48-348     48    348.0       1712.    
   897 2640-55-355     55    355.0       1717.    
   898 2640-61-4       61    4.000       1721.    
   899 2640-66-20      66    20.00       1732.    
   900 2640-71-4       71    4.000       1743.    
   901 2640-71-365     71    365.0       1745.    
   902 2636-42-351     42    351.0       1705.    
   903 2636-48-348     48    348.0       1710.    
   904 2636-55-355     55    355.0       1704.    
   905 2636-61-4       61    4.000       1718.    
   906 2636-66-20      66    20.00       1727.    
   907 2636-71-5       71    5.000       1738.    
   908 2636-71-365     71    365.0       1741.    
   909 2639-12-178     12    178.0       1856.    
     MULTIPLE LAYERS AND PROPORTIONS :    2, 0.39       3, 0.61
   910 2639-16-354     16    354.0       1839.    
     MULTIPLE LAYERS AND PROPORTIONS :    2, 0.39       3, 0.61
   911 2639-42-351     42    351.0       1715.    
     MULTIPLE LAYERS AND PROPORTIONS :    2, 0.39       3, 0.61
   912 2639-48-348     48    348.0       1725.    
     MULTIPLE LAYERS AND PROPORTIONS :    2, 0.39       3, 0.61
   913 2639-71-50      71    50.00       1753.    
     MULTIPLE LAYERS AND PROPORTIONS :    2, 0.39       3, 0.61
   914 2639-71-365     71    365.0       1754.    
     MULTIPLE LAYERS AND PROPORTIONS :    2, 0.39       3, 0.61
   915 2654-56-25      56    25.00       1734.    
   916 2654-61-52      61    52.00       1736.    
   917 2978-1-364       1    364.0       1871.    
 Observation within a steady-state time step has been moved to the end of the time step.
   918 2978-4-93        4    93.00       1868.    
   919 2964-48-300     48    300.0       1788.    
   920 2964-55-321     55    321.0       1815.    
   921 2964-60-313     60    313.0       1823.    
   922 2964-65-364     65    364.0       1827.    
   923 2964-71-349     71    349.0       1835.    
   924 2965-71-350     71    350.0       1956.    
   925 2985-17-5       17    5.000       1729.    
   926 2985-56-24      56    24.00       1725.    
   927 2985-61-56      61    56.00       1753.    
   928 2985-66-18      66    18.00       1803.    
   929 2913-56-23      56    23.00       1741.    
   930 2921-1-86        1    86.00       1806.    
 Observation within a steady-state time step has been moved to the end of the time step.
   931 2921-7-3         7    3.000       1801.    
   932 2921-10-320     10    320.0       1794.    
   933 2921-12-361     12    361.0       1787.    
   934 2938-56-26      56    26.00       1732.    
   935 2938-61-59      61    59.00       1755.    
   936 2938-66-20      66    20.00       1805.    
   937 2935-22-34      22    34.00       1724.    
   938 2935-27-20      27    20.00       1702.    
   939 2935-56-24      56    24.00       1723.    
   940 2935-61-56      61    56.00       1746.    
   941 2935-66-19      66    19.00       1797.    
   942 2943-48-275     48    275.0       1710.    
   943 2944-48-275     48    275.0       1707.    
   944 2936-56-24      56    24.00       1826.    
     MULTIPLE LAYERS AND PROPORTIONS :    2, 0.32       3, 0.68
   945 2936-61-55      61    55.00       1834.    
     MULTIPLE LAYERS AND PROPORTIONS :    2, 0.32       3, 0.68
   946 2937-17-5       17    5.000       1815.    
     MULTIPLE LAYERS AND PROPORTIONS :    2, 0.86       3, 0.14
   947 2937-22-34      22    34.00       1798.    
     MULTIPLE LAYERS AND PROPORTIONS :    2, 0.86       3, 0.14
   948 2937-32-85      32    85.00       1767.    
     MULTIPLE LAYERS AND PROPORTIONS :    2, 0.86       3, 0.14
   949 2937-42-349     42    349.0       1749.    
     MULTIPLE LAYERS AND PROPORTIONS :    2, 0.86       3, 0.14
   950 2937-48-341     48    341.0       1779.    
     MULTIPLE LAYERS AND PROPORTIONS :    2, 0.86       3, 0.14
   951 2937-56-24      56    24.00       1805.    
     MULTIPLE LAYERS AND PROPORTIONS :    2, 0.86       3, 0.14
   952 2937-65-302     65    302.0       1818.    
     MULTIPLE LAYERS AND PROPORTIONS :    2, 0.86       3, 0.14
   953 2915-12-6       12    6.000       1856.    
     MULTIPLE LAYERS AND PROPORTIONS :    2, 0.74       3, 0.26
   954 2915-17-5       17    5.000       1829.    
     MULTIPLE LAYERS AND PROPORTIONS :    2, 0.74       3, 0.26
   955 2915-56-24      56    24.00       1818.    
     MULTIPLE LAYERS AND PROPORTIONS :    2, 0.74       3, 0.26
   956 2915-61-56      61    56.00       1828.    
     MULTIPLE LAYERS AND PROPORTIONS :    2, 0.74       3, 0.26
   957 2915-66-19      66    19.00       1834.    
     MULTIPLE LAYERS AND PROPORTIONS :    2, 0.74       3, 0.26
   958 2863-48-275     48    275.0       1773.    
   959 2864-48-275     48    275.0       1775.    
   960 2885-17-5       17    5.000       1811.    
   961 2885-56-24      56    24.00       1794.    
   962 2885-61-56      61    56.00       1810.    
   963 2867-17-6       17    6.000       1763.    
   964 2867-21-335     21    335.0       1730.    
   965 2867-56-24      56    24.00       1732.    
   966 2867-61-56      61    56.00       1751.    
   967 2867-66-19      66    19.00       1792.    
   968 2887-56-24      56    24.00       1732.    
     MULTIPLE LAYERS AND PROPORTIONS :    2, 0.86       3, 0.14
   969 2887-66-19      66    19.00       1779.    
     MULTIPLE LAYERS AND PROPORTIONS :    2, 0.86       3, 0.14
   970 2886-17-6       17    6.000       1759.    
   971 2886-56-24      56    24.00       1727.    
   972 2886-61-56      61    56.00       1748.    
   973 2886-66-27      66    27.00       1789.    
   974 2850-1-86        1    86.00       1825.    
 Observation within a steady-state time step has been moved to the end of the time step.
   975 2850-7-4         7    4.000       1820.    
   976 2850-12-361     12    361.0       1812.    
   977 2837-12-284     12    284.0       1798.    
     MULTIPLE LAYERS AND PROPORTIONS :    1, 0.18       2, 0.82
   978 2837-16-354     16    354.0       1759.    
   979 2837-22-34      22    34.00       1730.    
   980 2837-32-85      32    85.00       1685.    
   981 2837-37-34      37    34.00       1676.    
   982 2837-42-349     42    349.0       1690.    
   983 2837-48-341     48    341.0       1709.    
   984 2837-56-24      56    24.00       1730.    
   985 2837-60-319     60    319.0       1750.    
   986 2837-65-298     65    298.0       1789.    
     MULTIPLE LAYERS AND PROPORTIONS :    1, 0.18       2, 0.82
   987 2837-71-11      71    11.00       1802.    
     MULTIPLE LAYERS AND PROPORTIONS :    1, 0.18       2, 0.82
   988 2837-71-365     71    365.0       1807.    
     MULTIPLE LAYERS AND PROPORTIONS :    1, 0.18       2, 0.82
   989 2818-17-6       17    6.000       1760.    
   990 2818-56-24      56    24.00       1738.    
   991 2818-61-52      61    52.00       1757.    
   992 2818-66-25      66    25.00       1793.    
   993 2800-48-348     48    348.0       1708.    
   994 2800-55-355     55    355.0       1729.    
   995 2800-61-7       61    7.000       1747.    
   996 2800-65-341     65    341.0       1780.    
   997 2800-71-50      71    50.00       1796.    
   998 2800-71-365     71    365.0       1797.    
   999 2786-56-24      56    24.00       1730.    
  1000 2786-61-52      61    52.00       1745.    
  1001 2786-66-25      66    25.00       1781.    
  1002 2770-1-86        1    86.00       1835.    
 Observation within a steady-state time step has been moved to the end of the time step.
  1003 2770-7-4         7    4.000       1831.    
  1004 2770-12-361     12    361.0       1826.    
  1005 2744-56-24      56    24.00       1736.    
  1006 2740-56-24      56    24.00       1735.    
  1007 2741-17-6       17    6.000       1783.    
  1008 2694-1-86        1    86.00       1871.    
 Observation within a steady-state time step has been moved to the end of the time step.
  1009 2694-5-67        5    67.00       1870.    
  1010 2643-2-60        2    60.00       1888.    
  1011 2643-6-284       6    284.0       1886.    
  1012 2643-11-275     11    275.0       1876.    
  1013 2933-56-23      56    23.00       1728.    
  1014 2851-16-354     16    354.0       1770.    
  1015 2851-65-341     65    341.0       1790.    
  1016 2851-71-50      71    50.00       1799.    
  1017 2851-71-365     71    365.0       1799.    
  1018 2854-65-341     65    341.0       1784.    
  1019 2854-71-50      71    50.00       1797.    
  1020 2854-71-365     71    365.0       1798.    
  1021 2796-61-52      61    52.00       1752.    
  1022 2796-66-33      66    33.00       1772.    
  1023 2712-42-351     42    351.0       1745.    
  1024 2712-48-348     48    348.0       1750.    
  1025 2712-56-27      56    27.00       1756.    
  1026 2712-61-7       61    7.000       1758.    
  1027 2712-66-55      66    55.00       1770.    
  1028 2712-71-365     71    365.0       1778.    
  1029 2709-55-355     55    355.0       1767.    
  1030 2709-61-7       61    7.000       1781.    
  1031 2709-65-341     65    341.0       1781.    
  1032 2709-71-365     71    365.0       1785.    
  1033 2702-42-351     42    351.0       1782.    
  1034 2702-48-348     48    348.0       1773.    
  1035 2702-56-27      56    27.00       1770.    
  1036 2702-61-7       61    7.000       1770.    
  1037 2702-65-341     65    341.0       1777.    
  1038 2702-71-365     71    365.0       1790.    
  1039 2711-39-335     39    335.0       1752.    
  1040 2711-56-26      56    26.00       1755.    
  1041 2711-61-7       61    7.000       1757.    
  1042 2711-65-341     65    341.0       1768.    
  1043 2711-71-365     71    365.0       1779.    
  1044 2713-42-351     42    351.0       1746.    
  1045 2713-56-26      56    26.00       1755.    
  1046 2713-61-7       61    7.000       1756.    
  1047 2713-65-341     65    341.0       1770.    
  1048 2713-71-365     71    365.0       1780.    
  1049 2682-56-23      56    23.00       1758.    
  1050 2682-61-53      61    53.00       1756.    
  1051 2682-66-28      66    28.00       1763.    
  1052 2866-12-332     12    332.0       1810.    
  1053 2866-17-6       17    6.000       1764.    
  1054 2998-43-6       43    6.000       2076.    
  1055 3416-56-26      56    26.00       1932.    
  1056 3416-61-55      61    55.00       1926.    
  1057 3416-66-19      66    19.00       1911.    
  1058 2986-8-305       8    305.0       1907.    
  1059 2960-1-365       1    365.0       1941.    
 Observation within a steady-state time step has been moved to the end of the time step.
  1060 2961-56-25      56    25.00       1958.    
     MULTIPLE LAYERS AND PROPORTIONS :    1, 0.29       2, 0.71
  1061 2961-61-59      61    59.00       1947.    
     MULTIPLE LAYERS AND PROPORTIONS :    1, 0.29       2, 0.71
  1062 2961-66-19      66    19.00       1917.    
     MULTIPLE LAYERS AND PROPORTIONS :    1, 0.29       2, 0.71
  1063 2957-56-25      56    25.00       1965.    
     MULTIPLE LAYERS AND PROPORTIONS :    1, 0.31       2, 0.69
  1064 2957-61-59      61    59.00       1978.    
     MULTIPLE LAYERS AND PROPORTIONS :    1, 0.31       2, 0.69
  1065 2988-1-51        1    51.00       1886.    
 Observation within a steady-state time step has been moved to the end of the time step.
  1066 2984-8-213       8    213.0       1873.    
  1067 2971-7-60        7    60.00       1916.    
  1068 2969-56-25      56    25.00       1917.    
     MULTIPLE LAYERS AND PROPORTIONS :    1, 0.68       2, 0.32
  1069 2969-61-55      61    55.00       1914.    
     MULTIPLE LAYERS AND PROPORTIONS :    1, 0.68       2, 0.32
  1070 2969-66-19      66    19.00       1855.    
     MULTIPLE LAYERS AND PROPORTIONS :    1, 0.68       2, 0.32
  1071 2976-56-25      56    25.00       1862.    
  1072 2976-61-55      61    55.00       1862.    
  1073 2976-66-19      66    19.00       1846.    
  1074 2972-56-25      56    25.00       1858.    
  1075 2972-66-19      66    19.00       1844.    
  1076 2919-21-335     21    335.0       1807.    
  1077 2946-56-25      56    25.00       1956.    
     MULTIPLE LAYERS AND PROPORTIONS :    2, 0.81       3, 0.19
  1078 2946-66-19      66    19.00       1917.    
     MULTIPLE LAYERS AND PROPORTIONS :    2, 0.81       3, 0.19
  1079 2927-22-17      22    17.00       1953.    
     MULTIPLE LAYERS AND PROPORTIONS :    2, 0.83       3, 0.17
  1080 2927-27-32      27    32.00       1950.    
     MULTIPLE LAYERS AND PROPORTIONS :    2, 0.83       3, 0.17
  1081 2955-8-276       8    276.0       1884.    
     MULTIPLE LAYERS AND PROPORTIONS :    1, 0.50       2, 0.50
  1082 2955-12-40      12    40.00       1882.    
     MULTIPLE LAYERS AND PROPORTIONS :    1, 0.50       2, 0.50
  1083 2955-17-1       17   1.0000       1870.    
     MULTIPLE LAYERS AND PROPORTIONS :    1, 0.50       2, 0.50
  1084 2955-27-32      27    32.00       1849.    
     MULTIPLE LAYERS AND PROPORTIONS :    1, 0.50       2, 0.50
  1085 2955-32-12      32    12.00       1857.    
     MULTIPLE LAYERS AND PROPORTIONS :    1, 0.50       2, 0.50
  1086 2955-37-1       37   1.0000       1849.    
     MULTIPLE LAYERS AND PROPORTIONS :    1, 0.50       2, 0.50
  1087 2926-56-26      56    26.00       1971.    
  1088 2926-61-59      61    59.00       1956.    
  1089 2942-1-365       1    365.0       1980.    
 Observation within a steady-state time step has been moved to the end of the time step.
  1090 2916-56-25      56    25.00       1981.    
  1091 2916-61-59      61    59.00       1963.    
  1092 2916-66-20      66    20.00       1933.    
  1093 2941-42-364     42    364.0       2010.    
  1094 2941-48-335     48    335.0       2013.    
  1095 2941-56-23      56    23.00       2015.    
  1096 2941-61-59      61    59.00       2009.    
  1097 2941-66-26      66    26.00       2003.    
  1098 2941-71-54      71    54.00       1985.    
  1099 3185-34-152     34    152.0       2050.    
  1100 2925-42-364     42    364.0       2042.    
  1101 2925-48-335     48    335.0       2045.    
  1102 2925-56-23      56    23.00       2044.    
  1103 2925-66-26      66    26.00       2024.    
  1104 2925-71-54      71    54.00       2018.    
  1105 2954-42-363     42    363.0       2095.    
  1106 2954-56-23      56    23.00       2088.    
  1107 2954-61-59      61    59.00       2078.    
  1108 2954-66-27      66    27.00       2077.    
  1109 2889-42-364     42    364.0       2041.    
  1110 2889-48-336     48    336.0       2056.    
  1111 2889-56-24      56    24.00       2053.    
  1112 2880-22-18      22    18.00       2092.    
  1113 2880-27-32      27    32.00       2088.    
  1114 2880-38-1       38   1.0000       2076.    
  1115 2880-42-363     42    363.0       2076.    
  1116 2893-1-274       1    274.0       2091.    
 Observation within a steady-state time step has been moved to the end of the time step.
  1117 2893-4-279       4    279.0       2087.    
  1118 2893-5-285       5    285.0       2084.    
  1119 2893-12-46      12    46.00       2075.    
  1120 2893-17-19      17    19.00       2069.    
  1121 2893-22-1       22   1.0000       2063.    
  1122 2893-27-32      27    32.00       2062.    
  1123 2893-32-14      32    14.00       2062.    
  1124 2893-38-1       38   1.0000       2055.    
  1125 2896-42-363     42    363.0       2024.    
  1126 2853-42-364     42    364.0       2049.    
  1127 2853-48-336     48    336.0       2053.    
  1128 2853-56-24      56    24.00       2052.    
  1129 2853-61-59      61    59.00       2043.    
  1130 2853-66-27      66    27.00       2025.    
  1131 2853-71-55      71    55.00       2016.    
  1132 2858-42-363     42    363.0       1992.    
  1133 2858-48-336     48    336.0       2008.    
  1134 2858-56-24      56    24.00       2017.    
  1135 2858-61-59      61    59.00       2004.    
  1136 2858-66-27      66    27.00       1969.    
  1137 2858-71-62      71    62.00       1974.    
  1138 2904-2-1         2   1.0000       2009.    
     MULTIPLE LAYERS AND PROPORTIONS :    1, 0.70       2, 0.30
  1139 2892-1-360       1    360.0       2007.    
 Observation within a steady-state time step has been moved to the end of the time step.
     MULTIPLE LAYERS AND PROPORTIONS :    1, 0.59       2, 0.41
  1140 2892-7-65        7    65.00       1995.    
     MULTIPLE LAYERS AND PROPORTIONS :    1, 0.59       2, 0.41
  1141 2892-11-334     11    334.0       1988.    
     MULTIPLE LAYERS AND PROPORTIONS :    1, 0.59       2, 0.41
  1142 2892-16-318     16    318.0       1984.    
     MULTIPLE LAYERS AND PROPORTIONS :    1, 0.59       2, 0.41
  1143 2892-22-34      22    34.00       1982.    
     MULTIPLE LAYERS AND PROPORTIONS :    1, 0.59       2, 0.41
  1144 2892-27-32      27    32.00       1986.    
     MULTIPLE LAYERS AND PROPORTIONS :    1, 0.59       2, 0.41
  1145 2892-31-351     31    351.0       1982.    
     MULTIPLE LAYERS AND PROPORTIONS :    1, 0.59       2, 0.41
  1146 2892-36-50      36    50.00       1996.    
     MULTIPLE LAYERS AND PROPORTIONS :    1, 0.59       2, 0.41
  1147 2909-56-25      56    25.00       1986.    
     MULTIPLE LAYERS AND PROPORTIONS :    1, 0.61       2, 0.39
  1148 2909-61-59      61    59.00       1960.    
     MULTIPLE LAYERS AND PROPORTIONS :    1, 0.61       2, 0.39
  1149 2909-66-19      66    19.00       1938.    
     MULTIPLE LAYERS AND PROPORTIONS :    1, 0.61       2, 0.39
  1150 2911-56-25      56    25.00       1984.    
     MULTIPLE LAYERS AND PROPORTIONS :    1, 0.75       2, 0.25
  1151 2911-61-59      61    59.00       1964.    
     MULTIPLE LAYERS AND PROPORTIONS :    1, 0.75       2, 0.25
  1152 2911-66-19      66    19.00       1937.    
     MULTIPLE LAYERS AND PROPORTIONS :    1, 0.75       2, 0.25
  1153 2884-66-32      66    32.00       1943.    
  1154 2865-8-91        8    91.00       1980.    
  1155 2865-48-342     48    342.0       1982.    
  1156 2848-66-32      66    32.00       1961.    
     MULTIPLE LAYERS AND PROPORTIONS :    1, 0.92       2, 0.08
  1157 2881-48-342     48    342.0       1981.    
  1158 2859-8-121       8    121.0       1997.    
  1159 2871-56-24      56    24.00       1811.    
  1160 2871-61-59      61    59.00       1816.    
  1161 2871-66-27      66    27.00       1823.    
  1162 2811-17-6       17    6.000       1836.    
  1163 2811-22-34      22    34.00       1823.    
  1164 2811-56-24      56    24.00       1832.    
  1165 2811-61-59      61    59.00       1835.    
  1166 2834-48-342     48    342.0       1994.    
  1167 2835-48-342     48    342.0       1994.    
  1168 2835-56-24      56    24.00       2006.    
  1169 2849-42-363     42    363.0       1982.    
  1170 2849-48-336     48    336.0       2003.    
  1171 2828-55-343     55    343.0       2013.    
  1172 2828-61-38      61    38.00       2000.    
  1173 2828-66-55      66    55.00       1961.    
  1174 2828-71-365     71    365.0       1963.    
  1175 2846-8-32        8    32.00       2008.    
     MULTIPLE LAYERS AND PROPORTIONS :    1, 0.44       2, 0.44       3, 0.12
  1176 2847-56-24      56    24.00       2005.    
     MULTIPLE LAYERS AND PROPORTIONS :    1, 0.23       2, 0.40       3, 0.37
  1177 2833-1-283       1    283.0       2018.    
 Observation within a steady-state time step has been moved to the end of the time step.
  1178 2821-43-27      43    27.00       1983.    
     MULTIPLE LAYERS AND PROPORTIONS :    1, 0.56       2, 0.44
  1179 2821-48-334     48    334.0       1999.    
     MULTIPLE LAYERS AND PROPORTIONS :    1, 0.56       2, 0.44
  1180 2821-56-23      56    23.00       2011.    
     MULTIPLE LAYERS AND PROPORTIONS :    1, 0.56       2, 0.44
  1181 2821-61-54      61    54.00       1994.    
     MULTIPLE LAYERS AND PROPORTIONS :    1, 0.56       2, 0.44
  1182 2821-66-13      66    13.00       1953.    
     MULTIPLE LAYERS AND PROPORTIONS :    1, 0.56       2, 0.44
  1183 2817-1-364       1    364.0       2034.    
 Observation within a steady-state time step has been moved to the end of the time step.
  1184 2805-48-334     48    334.0       2001.    
     MULTIPLE LAYERS AND PROPORTIONS :    2, 0.72       3, 0.28
  1185 2805-56-23      56    23.00       2012.    
     MULTIPLE LAYERS AND PROPORTIONS :    2, 0.72       3, 0.28
  1186 2805-61-53      61    53.00       1994.    
     MULTIPLE LAYERS AND PROPORTIONS :    2, 0.72       3, 0.28
  1187 2805-66-20      66    20.00       1954.    
     MULTIPLE LAYERS AND PROPORTIONS :    2, 0.72       3, 0.28
  1188 2798-8-32        8    32.00       2025.    
     MULTIPLE LAYERS AND PROPORTIONS :    1, 0.81       2, 0.19
  1189 2792-48-334     48    334.0       2008.    
  1190 2792-56-23      56    23.00       2019.    
  1191 2792-61-53      61    53.00       2001.    
  1192 2792-66-20      66    20.00       1972.    
  1193 2820-3-338       3    338.0       2046.    
  1194 2820-6-224       6    224.0       2047.    
  1195 2820-7-11        7    11.00       2038.    
  1196 2820-12-46      12    46.00       2037.    
  1197 2820-17-19      17    19.00       2033.    
  1198 2820-22-17      22    17.00       2029.    
  1199 2820-27-32      27    32.00       2035.    
  1200 2820-31-351     31    351.0       2032.    
  1201 2820-37-28      37    28.00       2030.    
  1202 2820-48-334     48    334.0       2020.    
  1203 2820-56-23      56    23.00       2034.    
  1204 2820-60-319     60    319.0       2016.    
  1205 2820-65-299     65    299.0       1978.    
  1206 2820-71-365     71    365.0       1985.    
  1207 2802-48-334     48    334.0       2023.    
  1208 2802-56-23      56    23.00       2039.    
  1209 2802-61-53      61    53.00       2020.    
  1210 2802-66-20      66    20.00       2007.    
  1211 2795-17-19      17    19.00       2040.    
  1212 2795-22-17      22    17.00       2037.    
  1213 2795-32-13      32    13.00       2041.    
  1214 2795-37-345     37    345.0       2028.    
  1215 2795-49-5       49    5.000       2031.    
  1216 2795-55-343     55    343.0       2037.    
  1217 2795-71-365     71    365.0       1992.    
  1218 2722-61-53      61    53.00       2062.    
     MULTIPLE LAYERS AND PROPORTIONS :    1, 0.32       2, 0.68
  1219 2723-61-53      61    53.00       2064.    
  1220 2723-66-20      66    20.00       2037.    
  1221 2715-48-335     48    335.0       2064.    
  1222 2715-56-23      56    23.00       2077.    
  1223 2715-61-53      61    53.00       2059.    
  1224 2715-66-20      66    20.00       2034.    
  1225 2754-1-365       1    365.0       2084.    
 Observation within a steady-state time step has been moved to the end of the time step.
  1226 2764-48-334     48    334.0       2045.    
     MULTIPLE LAYERS AND PROPORTIONS :    1, 0.38       2, 0.62
  1227 2764-56-23      56    23.00       2057.    
     MULTIPLE LAYERS AND PROPORTIONS :    1, 0.38       2, 0.62
  1228 2764-61-53      61    53.00       2040.    
     MULTIPLE LAYERS AND PROPORTIONS :    1, 0.38       2, 0.62
  1229 2764-66-20      66    20.00       2012.    
     MULTIPLE LAYERS AND PROPORTIONS :    1, 0.38       2, 0.62
  1230 2732-48-335     48    335.0       2047.    
  1231 2732-56-20      56    20.00       2062.    
  1232 2739-1-360       1    360.0       2087.    
 Observation within a steady-state time step has been moved to the end of the time step.
  1233 2736-8-32        8    32.00       2077.    
     MULTIPLE LAYERS AND PROPORTIONS :    1, 0.45       2, 0.55
  1234 2724-48-334     48    334.0       2054.    
     MULTIPLE LAYERS AND PROPORTIONS :    1, 0.47       2, 0.53
  1235 2724-56-23      56    23.00       2067.    
     MULTIPLE LAYERS AND PROPORTIONS :    1, 0.47       2, 0.53
  1236 2724-61-53      61    53.00       2053.    
     MULTIPLE LAYERS AND PROPORTIONS :    1, 0.47       2, 0.53
  1237 2724-66-20      66    20.00       2027.    
     MULTIPLE LAYERS AND PROPORTIONS :    1, 0.47       2, 0.53
  1238 2737-42-363     42    363.0       2008.    
     MULTIPLE LAYERS AND PROPORTIONS :    1, 0.54       2, 0.46
  1239 2717-2-1         2   1.0000       2069.    
  1240 2716-8-32        8    32.00       2057.    
  1241 2727-11-121     11    121.0       2014.    
  1242 2789-12-271     12    271.0       1861.    
  1243 2696-1-364       1    364.0       2056.    
 Observation within a steady-state time step has been moved to the end of the time step.
  1244 2696-6-341       6    341.0       2041.    
  1245 2696-11-334     11    334.0       2035.    
  1246 2696-16-313     16    313.0       2031.    
  1247 2696-22-34      22    34.00       2031.    
  1248 2708-48-337     48    337.0       1999.    
  1249 2708-56-19      56    19.00       1995.    
  1250 2708-66-28      66    28.00       1983.    
  1251 2701-32-43      32    43.00       2047.    
     MULTIPLE LAYERS AND PROPORTIONS :    1, 0.37       2, 0.41       3, 0.22
  1252 2701-42-363     42    363.0       2029.    
     MULTIPLE LAYERS AND PROPORTIONS :    1, 0.37       2, 0.41       3, 0.22
  1253 2701-56-19      56    19.00       2055.    
     MULTIPLE LAYERS AND PROPORTIONS :    1, 0.37       2, 0.41       3, 0.22
  1254 2668-42-363     42    363.0       2099.    
  1255 2668-56-19      56    19.00       2095.    
  1256 2668-61-52      61    52.00       2091.    
  1257 2668-66-35      66    35.00       2087.    
  1258 2681-8-32        8    32.00       2095.    
  1259 2678-48-335     48    335.0       2074.    
  1260 2678-56-23      56    23.00       2096.    
  1261 2678-61-54      61    54.00       2071.    
  1262 2678-66-20      66    20.00       2046.    
  1263 2690-66-55      66    55.00       2036.    
  1264 2692-2-1         2   1.0000       2090.    
  1265 2676-43-27      43    27.00       2084.    
     MULTIPLE LAYERS AND PROPORTIONS :    1, 0.11       2, 0.89
  1266 2676-48-335     48    335.0       2082.    
     MULTIPLE LAYERS AND PROPORTIONS :    1, 0.11       2, 0.89
  1267 2676-56-23      56    23.00       2090.    
     MULTIPLE LAYERS AND PROPORTIONS :    1, 0.11       2, 0.89
  1268 2676-61-53      61    53.00       2073.    
     MULTIPLE LAYERS AND PROPORTIONS :    1, 0.11       2, 0.89
  1269 2676-66-13      66    13.00       2057.    
     MULTIPLE LAYERS AND PROPORTIONS :    1, 0.11       2, 0.89
  1270 2705-48-335     48    335.0       2072.    
  1271 2705-56-23      56    23.00       2084.    
  1272 2705-61-54      61    54.00       2067.    
  1273 2705-66-18      66    18.00       2041.    
  1274 2707-43-27      43    27.00       2068.    
     MULTIPLE LAYERS AND PROPORTIONS :    1, 0.31       2, 0.69
  1275 2707-48-335     48    335.0       2067.    
     MULTIPLE LAYERS AND PROPORTIONS :    1, 0.31       2, 0.69
  1276 2707-56-23      56    23.00       2080.    
     MULTIPLE LAYERS AND PROPORTIONS :    1, 0.31       2, 0.69
  1277 2707-61-53      61    53.00       2062.    
     MULTIPLE LAYERS AND PROPORTIONS :    1, 0.31       2, 0.69
  1278 2707-66-20      66    20.00       2036.    
     MULTIPLE LAYERS AND PROPORTIONS :    1, 0.31       2, 0.69
  1279 2689-48-335     48    335.0       2068.    
  1280 2689-56-20      56    20.00       2084.    
  1281 2656-43-27      43    27.00       2089.    
  1282 2656-48-334     48    334.0       2086.    
  1283 2656-56-23      56    23.00       2110.    
  1284 2656-61-53      61    53.00       2083.    
  1285 2656-66-20      66    20.00       2058.    
  1286 2674-33-76      33    76.00       2097.    
  1287 2973-56-19      56    19.00       2361.    
     MULTIPLE LAYERS AND PROPORTIONS :    2, 0.52       3, 0.48
  1288 2973-66-32      66    32.00       2345.    
     MULTIPLE LAYERS AND PROPORTIONS :    2, 0.52       3, 0.48
  1289 2973-71-56      71    56.00       2326.    
     MULTIPLE LAYERS AND PROPORTIONS :    2, 0.52       3, 0.48
  1290 2977-38-91      38    91.00       2353.    
     MULTIPLE LAYERS AND PROPORTIONS :    2, 0.89       3, 0.11
  1291 2977-43-6       43    6.000       2361.    
     MULTIPLE LAYERS AND PROPORTIONS :    2, 0.89       3, 0.11
  1292 2977-48-335     48    335.0       2303.    
     MULTIPLE LAYERS AND PROPORTIONS :    2, 0.89       3, 0.11
  1293 2977-66-32      66    32.00       2340.    
     MULTIPLE LAYERS AND PROPORTIONS :    2, 0.89       3, 0.11
  1294 2991-42-362     42    362.0       2218.    
  1295 2991-48-334     48    334.0       2217.    
  1296 2991-56-27      56    27.00       2215.    
  1297 2991-61-59      61    59.00       2212.    
  1298 2991-66-25      66    25.00       2208.    
  1299 2991-71-57      71    57.00       2201.    
  1300 2966-42-362     42    362.0       2195.    
     MULTIPLE LAYERS AND PROPORTIONS :    2, 0.28       3, 0.72
  1301 2932-42-362     42    362.0       2079.    
  1302 2932-48-336     48    336.0       2078.    
  1303 2932-56-24      56    24.00       2073.    
  1304 2914-42-357     42    357.0       2126.    
  1305 2914-48-365     48    365.0       2119.    
  1306 2914-55-342     55    342.0       2106.    
  1307 2914-61-38      61    38.00       2100.    
  1308 2914-66-40      66    40.00       2091.    
  1309 2914-71-335     71    335.0       2076.    
  1310 2940-55-342     55    342.0       2119.    
  1311 2917-42-365     42    365.0       2135.    
  1312 2917-48-336     48    336.0       2132.    
  1313 2917-56-26      56    26.00       2119.    
  1314 2917-61-59      61    59.00       2102.    
  1315 2917-66-27      66    27.00       2108.    
  1316 2917-71-55      71    55.00       2097.    
  1317 2924-42-362     42    362.0       2164.    
  1318 2930-36-43      36    43.00       2337.    
  1319 2930-56-27      56    27.00       2345.    
  1320 2930-66-33      66    33.00       2292.    
  1321 2930-71-56      71    56.00       2273.    
  1322 2929-42-357     42    357.0       2414.    
     MULTIPLE LAYERS AND PROPORTIONS :    2, 0.33       3, 0.67
  1323 2929-48-355     48    355.0       2427.    
     MULTIPLE LAYERS AND PROPORTIONS :    2, 0.33       3, 0.67
  1324 2929-55-342     55    342.0       2428.    
     MULTIPLE LAYERS AND PROPORTIONS :    2, 0.33       3, 0.67
  1325 2929-60-362     60    362.0       2395.    
     MULTIPLE LAYERS AND PROPORTIONS :    2, 0.33       3, 0.67
  1326 2929-66-1       66   1.0000       2345.    
     MULTIPLE LAYERS AND PROPORTIONS :    2, 0.33       3, 0.67
  1327 2929-71-335     71    335.0       2323.    
     MULTIPLE LAYERS AND PROPORTIONS :    2, 0.33       3, 0.67
  1328 2888-43-6       43    6.000       2314.    
     MULTIPLE LAYERS AND PROPORTIONS :    2, 0.37       3, 0.63
  1329 2888-48-334     48    334.0       2312.    
     MULTIPLE LAYERS AND PROPORTIONS :    2, 0.37       3, 0.63
  1330 2888-56-26      56    26.00       2312.    
     MULTIPLE LAYERS AND PROPORTIONS :    2, 0.37       3, 0.63
  1331 2888-66-32      66    32.00       2268.    
     MULTIPLE LAYERS AND PROPORTIONS :    2, 0.37       3, 0.63
  1332 2888-71-56      71    56.00       2248.    
     MULTIPLE LAYERS AND PROPORTIONS :    2, 0.37       3, 0.63
  1333 2856-32-84      32    84.00       2310.    
     MULTIPLE LAYERS AND PROPORTIONS :    2, 0.81       3, 0.19
  1334 2852-43-5       43    5.000       2289.    
     MULTIPLE LAYERS AND PROPORTIONS :    2, 0.96       3, 0.04
  1335 2852-56-19      56    19.00       2286.    
     MULTIPLE LAYERS AND PROPORTIONS :    2, 0.96       3, 0.04
  1336 2852-66-35      66    35.00       2251.    
     MULTIPLE LAYERS AND PROPORTIONS :    2, 0.96       3, 0.04
  1337 2852-71-56      71    56.00       2229.    
     MULTIPLE LAYERS AND PROPORTIONS :    2, 0.96       3, 0.04
  1338 2869-43-8       43    8.000       2322.    
  1339 2869-48-334     48    334.0       2322.    
  1340 2869-56-24      56    24.00       2325.    
  1341 2899-42-362     42    362.0       2169.    
  1342 2899-48-338     48    338.0       2165.    
  1343 2903-33-257     33    257.0       2172.    
     MULTIPLE LAYERS AND PROPORTIONS :    2, 0.86       3, 0.14
  1344 2908-42-357     42    357.0       2149.    
  1345 2908-48-356     48    356.0       2145.    
  1346 2908-55-342     55    342.0       2130.    
  1347 2908-66-26      66    26.00       2118.    
  1348 2908-71-335     71    335.0       2103.    
  1349 2879-55-342     55    342.0       2098.    
  1350 2879-61-40      61    40.00       2094.    
  1351 2879-66-19      66    19.00       2087.    
  1352 2879-71-335     71    335.0       2071.    
  1353 2878-66-26      66    26.00       2111.    
  1354 2878-71-335     71    335.0       2094.    
  1355 2897-1-274       1    274.0       2168.    
 Observation within a steady-state time step has been moved to the end of the time step.
  1356 2897-6-284       6    284.0       2163.    
  1357 2898-11-34      11    34.00       2156.    
  1358 2898-16-361     16    361.0       2147.    
  1359 2898-37-33      37    33.00       2120.    
  1360 2882-43-32      43    32.00       2090.    
  1361 2882-48-365     48    365.0       2088.    
  1362 2882-55-342     55    342.0       2079.    
  1363 2882-61-38      61    38.00       2073.    
  1364 2882-66-40      66    40.00       2061.    
  1365 2882-71-335     71    335.0       2048.    
  1366 2870-33-274     33    274.0       2085.    
  1367 2862-33-135     33    135.0       2110.    
  1368 2824-66-31      66    31.00       2077.    
  1369 2824-71-54      71    54.00       2069.    
  1370 2807-49-5       49    5.000       2134.    
  1371 2807-55-342     55    342.0       2112.    
  1372 2807-71-62      71    62.00       2078.    
  1373 2797-71-62      71    62.00       2081.    
  1374 2845-66-35      66    35.00       2167.    
  1375 2845-71-62      71    62.00       2154.    
  1376 2841-1-274       1    274.0       2225.    
 Observation within a steady-state time step has been moved to the end of the time step.
  1377 2841-6-284       6    284.0       2221.    
  1378 2841-11-34      11    34.00       2216.    
  1379 2841-16-361     16    361.0       2204.    
  1380 2841-38-91      38    91.00       2174.    
  1381 2841-39-91      39    91.00       2173.    
  1382 2841-42-364     42    364.0       2172.    
  1383 2841-48-336     48    336.0       2167.    
  1384 2815-56-24      56    24.00       2141.    
  1385 2801-33-52      33    52.00       2182.    
  1386 2844-43-6       43    6.000       2206.    
  1387 2844-48-334     48    334.0       2200.    
  1388 2844-56-19      56    19.00       2197.    
  1389 2844-66-34      66    34.00       2189.    
  1390 2844-71-61      71    61.00       2232.    
  1391 2819-56-17      56    17.00       2213.    
  1392 2825-56-19      56    19.00       2187.    
  1393 2825-66-35      66    35.00       2215.    
  1394 2794-33-62      33    62.00       2149.    
  1395 2791-42-356     42    356.0       2195.    
  1396 2791-48-337     48    337.0       2171.    
  1397 2791-61-61      61    61.00       2160.    
  1398 2791-66-26      66    26.00       2146.    
  1399 2806-42-356     42    356.0       2222.    
     MULTIPLE LAYERS AND PROPORTIONS :    2, 0.61       3, 0.39
  1400 2806-48-337     48    337.0       2214.    
     MULTIPLE LAYERS AND PROPORTIONS :    2, 0.61       3, 0.39
  1401 2840-43-5       43    5.000       2293.    
  1402 2840-48-334     48    334.0       2294.    
  1403 2840-56-19      56    19.00       2291.    
  1404 2840-61-56      61    56.00       2278.    
  1405 2840-66-32      66    32.00       2257.    
  1406 2827-66-32      66    32.00       2236.    
  1407 2827-71-61      71    61.00       2213.    
  1408 2813-66-26      66    26.00       2210.    
  1409 2813-71-323     71    323.0       2178.    
  1410 2814-42-357     42    357.0       2232.    
     MULTIPLE LAYERS AND PROPORTIONS :    2, 0.62       3, 0.38
  1411 2814-55-342     55    342.0       2222.    
     MULTIPLE LAYERS AND PROPORTIONS :    2, 0.62       3, 0.38
  1412 2814-61-35      61    35.00       2215.    
     MULTIPLE LAYERS AND PROPORTIONS :    2, 0.62       3, 0.38
  1413 2814-66-26      66    26.00       2200.    
     MULTIPLE LAYERS AND PROPORTIONS :    2, 0.62       3, 0.38
  1414 2804-42-357     42    357.0       2231.    
     MULTIPLE LAYERS AND PROPORTIONS :    2, 0.18       3, 0.82
  1415 2804-55-342     55    342.0       2222.    
     MULTIPLE LAYERS AND PROPORTIONS :    2, 0.18       3, 0.82
  1416 2804-61-35      61    35.00       2214.    
     MULTIPLE LAYERS AND PROPORTIONS :    2, 0.18       3, 0.82
  1417 2804-66-26      66    26.00       2199.    
     MULTIPLE LAYERS AND PROPORTIONS :    2, 0.18       3, 0.82
  1418 2812-42-335     42    335.0       2311.    
  1419 2812-48-355     48    355.0       2307.    
  1420 2812-55-342     55    342.0       2303.    
  1421 2812-61-35      61    35.00       2295.    
  1422 2812-71-323     71    323.0       2247.    
  1423 2765-42-357     42    357.0       2207.    
  1424 2765-48-355     48    355.0       2200.    
  1425 2765-55-342     55    342.0       2197.    
  1426 2765-61-35      61    35.00       2192.    
  1427 2765-66-26      66    26.00       2180.    
  1428 2765-71-323     71    323.0       2156.    
  1429 2728-8-69        8    69.00       2235.    
  1430 2719-42-357     42    357.0       2193.    
  1431 2719-48-356     48    356.0       2188.    
  1432 2719-55-343     55    343.0       2181.    
  1433 2726-42-357     42    357.0       2200.    
  1434 2726-48-355     48    355.0       2193.    
  1435 2726-55-342     55    342.0       2190.    
  1436 2726-61-35      61    35.00       2185.    
  1437 2726-66-26      66    26.00       2173.    
  1438 2726-71-323     71    323.0       2151.    
  1439 2784-71-62      71    62.00       2079.    
  1440 2730-56-24      56    24.00       2146.    
  1441 2730-61-54      61    54.00       2138.    
  1442 2730-66-18      66    18.00       2121.    
  1443 2781-16-361     16    361.0       2176.    
  1444 2782-17-7       17    7.000       2174.    
  1445 2782-71-62      71    62.00       2077.    
  1446 2762-48-338     48    338.0       2121.    
  1447 2785-56-23      56    23.00       2118.    
  1448 2785-66-19      66    19.00       2086.    
  1449 2757-56-24      56    24.00       2116.    
  1450 2757-66-19      66    19.00       2086.    
  1451 2763-56-24      56    24.00       2114.    
  1452 2763-66-19      66    19.00       2080.    
  1453 2729-56-24      56    24.00       2122.    
  1454 2729-66-18      66    18.00       2088.    
  1455 2720-16-298     16    298.0       2169.    
  1456 2720-22-31      22    31.00       2162.    
  1457 2706-66-35      66    35.00       2088.    
  1458 2710-56-24      56    24.00       2141.    
  1459 2755-56-23      56    23.00       2094.    
  1460 2755-61-54      61    54.00       2084.    
  1461 2755-66-18      66    18.00       2074.    
  1462 2735-1-365       1    365.0       2237.    
 Observation within a steady-state time step has been moved to the end of the time step.
  1463 2778-33-182     33    182.0       2092.    
  1464 2759-34-121     34    121.0       2105.    
  1465 2738-66-26      66    26.00       2051.    
  1466 2738-71-348     71    348.0       2053.    
  1467 2733-10-280     10    280.0       2107.    
  1468 2733-22-19      22    19.00       2094.    
  1469 2733-42-362     42    362.0       2087.    
  1470 2733-48-362     48    362.0       2085.    
  1471 2733-55-342     55    342.0       2082.    
  1472 2733-61-38      61    38.00       2071.    
  1473 2733-66-40      66    40.00       2050.    
  1474 2733-71-348     71    348.0       2045.    
  1475 2698-49-8       49    8.000       2085.    
  1476 2698-55-342     55    342.0       2092.    
  1477 2698-61-10      61   10.000       2091.    
  1478 2698-71-348     71    348.0       2053.    
  1479 2665-42-362     42    362.0       2093.    
     MULTIPLE LAYERS AND PROPORTIONS :    1, 0.14       2, 0.86
  1480 2665-48-362     48    362.0       2091.    
     MULTIPLE LAYERS AND PROPORTIONS :    1, 0.14       2, 0.86
  1481 2665-55-342     55    342.0       2098.    
     MULTIPLE LAYERS AND PROPORTIONS :    1, 0.14       2, 0.86
  1482 2665-61-4       61    4.000       2086.    
     MULTIPLE LAYERS AND PROPORTIONS :    1, 0.14       2, 0.86
  1483 2665-66-26      66    26.00       2056.    
     MULTIPLE LAYERS AND PROPORTIONS :    1, 0.14       2, 0.86
  1484 2665-71-348     71    348.0       2061.    
     MULTIPLE LAYERS AND PROPORTIONS :    1, 0.14       2, 0.86
  1485 2664-1-360       1    360.0       2134.    
 Observation within a steady-state time step has been moved to the end of the time step.
  1486 2664-6-341       6    341.0       2125.    
  1487 2662-42-362     42    362.0       2094.    
  1488 2662-48-361     48    361.0       2091.    
  1489 2662-55-342     55    342.0       2094.    
  1490 2662-71-348     71    348.0       2057.    
  1491 2659-55-342     55    342.0       2093.    
  1492 2659-61-11      61    11.00       2063.    
  1493 2659-66-26      66    26.00       2057.    
  1494 2659-71-348     71    348.0       2060.    
  1495 2658-1-92        1    92.00       2100.    
 Observation within a steady-state time step has been moved to the end of the time step.
  1496 2742-17-3       17    3.000       2141.    
  1497 2742-22-1       22   1.0000       2140.    
  1498 2742-38-91      38    91.00       2123.    
  1499 2742-56-24      56    24.00       2107.    
  1500 2742-61-54      61    54.00       2093.    
  1501 2742-66-31      66    31.00       2068.    
  1502 2742-71-62      71    62.00       2064.    
  1503 2683-42-362     42    362.0       2093.    
  1504 2683-48-362     48    362.0       2090.    
  1505 2683-55-342     55    342.0       2081.    
  1506 2683-61-32      61    32.00       2079.    
  1507 2683-66-40      66    40.00       2053.    
  1508 2686-1-274       1    274.0       2157.    
 Observation within a steady-state time step has been moved to the end of the time step.
  1509 2686-6-283       6    283.0       2150.    
  1510 2686-10-280     10    280.0       2137.    
  1511 2666-1-274       1    274.0       2111.    
 Observation within a steady-state time step has been moved to the end of the time step.
  1512 2666-6-283       6    283.0       2101.    
  1513 2670-17-3       17    3.000       2140.    
  1514 2670-22-31      22    31.00       2138.    
  1515 2670-31-351     31    351.0       2129.    
  1516 2670-36-50      36    50.00       2126.    
  1517 2670-42-352     42    352.0       2116.    
  1518 2670-56-24      56    24.00       2108.    
  1519 2670-61-54      61    54.00       2091.    
  1520 2670-66-33      66    33.00       2063.    
  1521 2670-71-62      71    62.00       2070.    
  1522 2703-36-244     36    244.0       2194.    
  1523 2703-48-355     48    355.0       2189.    
  1524 2703-55-343     55    343.0       2184.    
  1525 2703-61-35      61    35.00       2180.    
  1526 2703-66-19      66    19.00       2178.    
  1527 2703-71-323     71    323.0       2147.    
  1528 2680-71-61      71    61.00       2159.    
  1529 2704-42-335     42    335.0       2188.    
  1530 2704-48-356     48    356.0       2184.    
  1531 2672-42-356     42    356.0       2170.    
  1532 2672-66-33      66    33.00       2154.    
  1533 2672-71-63      71    63.00       2142.    
  1534 2657-42-356     42    356.0       2158.    
  1535 2657-66-33      66    33.00       2152.    
  1536 2685-42-356     42    356.0       2197.    
  1537 2685-48-355     48    355.0       2193.    
  1538 2685-55-343     55    343.0       2186.    
  1539 2685-61-35      61    35.00       2183.    
  1540 2685-66-26      66    26.00       2173.    
  1541 2685-71-323     71    323.0       2154.    
  1542 2983-16-361     16    361.0       2632.    
  1543 2983-22-31      22    31.00       2610.    
  1544 2983-27-11      27    11.00       2618.    
  1545 2980-43-8       43    8.000       2567.    
  1546 2980-48-334     48    334.0       2581.    
  1547 2980-56-24      56    24.00       2581.    
  1548 2990-16-361     16    361.0       2525.    
  1549 2990-48-337     48    337.0       2544.    
  1550 2990-56-24      56    24.00       2562.    
  1551 2956-2-85        2    85.00       2545.    
  1552 2956-6-284       6    284.0       2530.    
  1553 2956-12-261     12    261.0       2511.    
  1554 2956-16-133     16    133.0       2520.    
  1555 2956-26-124     26    124.0       2513.    
  1556 2956-37-34      37    34.00       2520.    
  1557 2956-43-5       43    5.000       2537.    
  1558 2956-48-334     48    334.0       2551.    
  1559 2956-56-27      56    27.00       2553.    
  1560 2956-66-35      66    35.00       2495.    
  1561 2956-71-12      71    12.00       2500.    
  1562 2956-71-365     71    365.0       2513.    
  1563 2931-11-62      11    62.00       2429.    
  1564 2931-16-361     16    361.0       2420.    
  1565 2931-22-31      22    31.00       2415.    
  1566 2635-56-25      56    25.00       1731.    
  1567 2595-16-355     16    355.0       1833.    
  1568 2595-48-349     48    349.0       1721.    
  1569 2595-55-355     55    355.0       1728.    
  1570 2595-61-4       61    4.000       1733.    
  1571 2595-66-47      66    47.00       1743.    
  1572 2595-71-5       71    5.000       1753.    
  1573 2595-71-365     71    365.0       1755.    
  1574 2594-48-350     48    350.0       1725.    
     MULTIPLE LAYERS AND PROPORTIONS :    2, 0.12       3, 0.88
  1575 2594-55-355     55    355.0       1732.    
     MULTIPLE LAYERS AND PROPORTIONS :    2, 0.12       3, 0.88
  1576 2594-66-47      66    47.00       1746.    
     MULTIPLE LAYERS AND PROPORTIONS :    2, 0.12       3, 0.88
  1577 2594-71-5       71    5.000       1757.    
     MULTIPLE LAYERS AND PROPORTIONS :    2, 0.12       3, 0.88
  1578 2594-71-365     71    365.0       1760.    
     MULTIPLE LAYERS AND PROPORTIONS :    2, 0.12       3, 0.88
  1579 2599-66-47      66    47.00       1746.    
  1580 2599-71-5       71    5.000       1756.    
  1581 2599-71-365     71    365.0       1758.    
  1582 2596-42-351     42    351.0       1713.    
     MULTIPLE LAYERS AND PROPORTIONS :    2, 0.12       3, 0.88
  1583 2596-48-349     48    349.0       1721.    
     MULTIPLE LAYERS AND PROPORTIONS :    2, 0.12       3, 0.88
  1584 2596-55-355     55    355.0       1728.    
     MULTIPLE LAYERS AND PROPORTIONS :    2, 0.12       3, 0.88
  1585 2596-61-4       61    4.000       1733.    
     MULTIPLE LAYERS AND PROPORTIONS :    2, 0.12       3, 0.88
  1586 2596-66-34      66    34.00       1742.    
     MULTIPLE LAYERS AND PROPORTIONS :    2, 0.12       3, 0.88
  1587 2596-71-5       71    5.000       1753.    
  1588 2596-71-365     71    365.0       1755.    
  1589 2591-56-3       56    3.000       1728.    
  1590 2591-61-4       61    4.000       1732.    
  1591 2591-66-34      66    34.00       1742.    
  1592 2591-71-5       71    5.000       1753.    
  1593 2591-71-365     71    365.0       1755.    
  1594 2588-42-351     42    351.0       1710.    
  1595 2588-48-349     48    349.0       1715.    
  1596 2588-55-355     55    355.0       1722.    
  1597 2588-61-4       61    4.000       1726.    
  1598 2588-66-47      66    47.00       1736.    
  1599 2588-71-4       71    4.000       1746.    
  1600 2588-71-365     71    365.0       1749.    
  1601 2564-12-171     12    171.0       1866.    
  1602 2564-16-355     16    355.0       1833.    
  1603 2564-22-37      22    37.00       1807.    
  1604 2530-42-351     42    351.0       1722.    
     MULTIPLE LAYERS AND PROPORTIONS :    2, 0.05       3, 0.95
  1605 2530-48-349     48    349.0       1730.    
     MULTIPLE LAYERS AND PROPORTIONS :    2, 0.05       3, 0.95
  1606 2530-55-355     55    355.0       1739.    
     MULTIPLE LAYERS AND PROPORTIONS :    2, 0.05       3, 0.95
  1607 2530-61-6       61    6.000       1743.    
     MULTIPLE LAYERS AND PROPORTIONS :    2, 0.05       3, 0.95
  1608 2530-66-47      66    47.00       1754.    
     MULTIPLE LAYERS AND PROPORTIONS :    2, 0.05       3, 0.95
  1609 2530-71-5       71    5.000       1764.    
  1610 2530-71-365     71    365.0       1766.    
  1611 2529-17-6       17    6.000       1844.    
  1612 2529-56-24      56    24.00       1737.    
  1613 2529-61-52      61    52.00       1742.    
  1614 2529-66-19      66    19.00       1751.    
  1615 2587-1-105       1    105.0       1880.    
 Observation within a steady-state time step has been moved to the end of the time step.
  1616 2587-7-3         7    3.000       1880.    
  1617 2449-32-85      32    85.00       1798.    
  1618 2492-48-349     48    349.0       1742.    
     MULTIPLE LAYERS AND PROPORTIONS :    2, 0.26       3, 0.74
  1619 2492-61-4       61    4.000       1757.    
     MULTIPLE LAYERS AND PROPORTIONS :    2, 0.26       3, 0.74
  1620 2492-66-39      66    39.00       1766.    
     MULTIPLE LAYERS AND PROPORTIONS :    2, 0.26       3, 0.74
  1621 2492-71-6       71    6.000       1776.    
  1622 2492-71-365     71    365.0       1779.    
  1623 2491-56-3       56    3.000       1769.    
  1624 2491-61-6       61    6.000       1771.    
  1625 2491-66-39      66    39.00       1779.    
  1626 2491-71-6       71    6.000       1788.    
  1627 2491-71-365     71    365.0       1789.    
  1628 2450-48-349     48    349.0       1771.    
     MULTIPLE LAYERS AND PROPORTIONS :    2, 0.28       3, 0.72
  1629 2450-55-354     55    354.0       1777.    
     MULTIPLE LAYERS AND PROPORTIONS :    2, 0.28       3, 0.72
  1630 2450-61-4       61    4.000       1779.    
     MULTIPLE LAYERS AND PROPORTIONS :    2, 0.28       3, 0.72
  1631 2450-66-39      66    39.00       1785.    
     MULTIPLE LAYERS AND PROPORTIONS :    2, 0.28       3, 0.72
  1632 2450-71-6       71    6.000       1795.    
  1633 2450-71-365     71    365.0       1796.    
  1634 2451-48-349     48    349.0       1763.    
     MULTIPLE LAYERS AND PROPORTIONS :    2, 0.31       3, 0.69
  1635 2451-55-355     55    355.0       1771.    
     MULTIPLE LAYERS AND PROPORTIONS :    2, 0.31       3, 0.69
  1636 2451-61-4       61    4.000       1774.    
     MULTIPLE LAYERS AND PROPORTIONS :    2, 0.31       3, 0.69
  1637 2451-66-27      66    27.00       1778.    
     MULTIPLE LAYERS AND PROPORTIONS :    2, 0.31       3, 0.69
  1638 2451-71-6       71    6.000       1788.    
  1639 2451-71-365     71    365.0       1790.    
  1640 2442-48-348     48    348.0       1728.    
  1641 2442-56-23      56    23.00       1738.    
  1642 2442-60-319     60    319.0       1740.    
  1643 2442-66-26      66    26.00       1748.    
  1644 2442-71-11      71    11.00       1762.    
  1645 2452-12-171     12    171.0       1883.    
  1646 2452-16-314     16    314.0       1834.    
  1647 2452-32-85      32    85.00       1756.    
  1648 2452-35-53      35    53.00       1745.    
  1649 2390-42-351     42    351.0       1719.    
  1650 2390-48-349     48    349.0       1727.    
  1651 2390-55-355     55    355.0       1736.    
  1652 2390-66-47      66    47.00       1751.    
  1653 2390-71-6       71    6.000       1762.    
  1654 2390-71-365     71    365.0       1764.    
  1655 2303-42-351     42    351.0       1724.    
     MULTIPLE LAYERS AND PROPORTIONS :    2, 0.07       3, 0.93
  1656 2303-48-349     48    349.0       1730.    
     MULTIPLE LAYERS AND PROPORTIONS :    2, 0.07       3, 0.93
  1657 2303-55-355     55    355.0       1738.    
     MULTIPLE LAYERS AND PROPORTIONS :    2, 0.07       3, 0.93
  1658 2303-61-4       61    4.000       1743.    
     MULTIPLE LAYERS AND PROPORTIONS :    2, 0.07       3, 0.93
  1659 2303-66-47      66    47.00       1752.    
     MULTIPLE LAYERS AND PROPORTIONS :    2, 0.07       3, 0.93
  1660 2303-71-6       71    6.000       1763.    
  1661 2303-71-365     71    365.0       1765.    
  1662 2417-56-24      56    24.00       1738.    
  1663 2417-61-54      61    54.00       1743.    
  1664 2411-56-24      56    24.00       1738.    
  1665 2411-61-54      61    54.00       1743.    
  1666 2259-42-352     42    352.0       1727.    
  1667 2259-56-3       56    3.000       1745.    
  1668 2296-22-38      22    38.00       1830.    
     MULTIPLE LAYERS AND PROPORTIONS :    2, 0.10       3, 0.90
  1669 2296-42-352     42    352.0       1741.    
     MULTIPLE LAYERS AND PROPORTIONS :    2, 0.10       3, 0.90
  1670 2296-48-350     48    350.0       1751.    
     MULTIPLE LAYERS AND PROPORTIONS :    2, 0.10       3, 0.90
  1671 2296-55-354     55    354.0       1759.    
     MULTIPLE LAYERS AND PROPORTIONS :    2, 0.10       3, 0.90
  1672 2296-61-6       61    6.000       1764.    
     MULTIPLE LAYERS AND PROPORTIONS :    2, 0.10       3, 0.90
  1673 2296-66-39      66    39.00       1772.    
     MULTIPLE LAYERS AND PROPORTIONS :    2, 0.10       3, 0.90
  1674 2296-71-6       71    6.000       1781.    
  1675 2296-71-365     71    365.0       1782.    
  1676 2302-48-350     48    350.0       1777.    
     MULTIPLE LAYERS AND PROPORTIONS :    2, 0.29       3, 0.71
  1677 2302-55-354     55    354.0       1777.    
     MULTIPLE LAYERS AND PROPORTIONS :    2, 0.29       3, 0.71
  1678 2302-61-6       61    6.000       1789.    
     MULTIPLE LAYERS AND PROPORTIONS :    2, 0.29       3, 0.71
  1679 2302-66-32      66    32.00       1790.    
     MULTIPLE LAYERS AND PROPORTIONS :    2, 0.29       3, 0.71
  1680 2302-71-6       71    6.000       1799.    
  1681 2302-71-365     71    365.0       1800.    
  1682 2301-37-33      37    33.00       1770.    
     MULTIPLE LAYERS AND PROPORTIONS :    2, 0.27       3, 0.73
  1683 2301-42-352     42    352.0       1779.    
     MULTIPLE LAYERS AND PROPORTIONS :    2, 0.27       3, 0.73
  1684 2301-48-349     48    349.0       1792.    
     MULTIPLE LAYERS AND PROPORTIONS :    2, 0.27       3, 0.73
  1685 2301-55-354     55    354.0       1797.    
     MULTIPLE LAYERS AND PROPORTIONS :    2, 0.27       3, 0.73
  1686 2301-66-1       66   1.0000       1802.    
     MULTIPLE LAYERS AND PROPORTIONS :    2, 0.27       3, 0.73
  1687 2301-71-6       71    6.000       1809.    
     MULTIPLE LAYERS AND PROPORTIONS :    2, 0.27       3, 0.73
  1688 2301-71-365     71    365.0       1811.    
     MULTIPLE LAYERS AND PROPORTIONS :    2, 0.27       3, 0.73
  1689 2440-55-354     55    354.0       1790.    
  1690 2440-61-6       61    6.000       1793.    
  1691 2440-65-342     65    342.0       1796.    
  1692 2440-71-6       71    6.000       1808.    
  1693 2440-71-365     71    365.0       1809.    
  1694 2300-16-354     16    354.0       1887.    
     MULTIPLE LAYERS AND PROPORTIONS :    2, 0.44       3, 0.56
  1695 2300-48-350     48    350.0       1798.    
     MULTIPLE LAYERS AND PROPORTIONS :    2, 0.44       3, 0.56
  1696 2300-55-355     55    355.0       1805.    
     MULTIPLE LAYERS AND PROPORTIONS :    2, 0.44       3, 0.56
  1697 2300-61-6       61    6.000       1809.    
     MULTIPLE LAYERS AND PROPORTIONS :    2, 0.44       3, 0.56
  1698 2300-65-341     65    341.0       1808.    
     MULTIPLE LAYERS AND PROPORTIONS :    2, 0.44       3, 0.56
  1699 2300-71-7       71    7.000       1820.    
     MULTIPLE LAYERS AND PROPORTIONS :    2, 0.44       3, 0.56
  1700 2300-71-365     71    365.0       1820.    
  1701 2220-12-311     12    311.0       1928.    
     MULTIPLE LAYERS AND PROPORTIONS :    2, 0.13       3, 0.87
  1702 2220-16-356     16    356.0       1891.    
     MULTIPLE LAYERS AND PROPORTIONS :    2, 0.13       3, 0.87
  1703 2220-48-350     48    350.0       1810.    
     MULTIPLE LAYERS AND PROPORTIONS :    2, 0.13       3, 0.87
  1704 2220-55-354     55    354.0       1812.    
     MULTIPLE LAYERS AND PROPORTIONS :    2, 0.13       3, 0.87
  1705 2220-61-7       61    7.000       1815.    
     MULTIPLE LAYERS AND PROPORTIONS :    2, 0.13       3, 0.87
  1706 2220-66-39      66    39.00       1812.    
     MULTIPLE LAYERS AND PROPORTIONS :    2, 0.13       3, 0.87
  1707 2220-71-7       71    7.000       1827.    
     MULTIPLE LAYERS AND PROPORTIONS :    2, 0.13       3, 0.87
  1708 2220-71-365     71    365.0       1826.    
  1709 2222-55-354     55    354.0       1806.    
     MULTIPLE LAYERS AND PROPORTIONS :    2, 0.07       3, 0.93
  1710 2222-61-6       61    6.000       1815.    
     MULTIPLE LAYERS AND PROPORTIONS :    2, 0.07       3, 0.93
  1711 2222-65-341     65    341.0       1809.    
     MULTIPLE LAYERS AND PROPORTIONS :    2, 0.07       3, 0.93
  1712 2222-71-7       71    7.000       1822.    
     MULTIPLE LAYERS AND PROPORTIONS :    2, 0.07       3, 0.93
  1713 2222-71-365     71    365.0       1821.    
  1714 2096-48-350     48    350.0       1816.    
     MULTIPLE LAYERS AND PROPORTIONS :    2, 0.42       3, 0.58
  1715 2096-55-354     55    354.0       1818.    
     MULTIPLE LAYERS AND PROPORTIONS :    2, 0.42       3, 0.58
  1716 2096-61-6       61    6.000       1824.    
     MULTIPLE LAYERS AND PROPORTIONS :    2, 0.42       3, 0.58
  1717 2096-65-343     65    343.0       1814.    
     MULTIPLE LAYERS AND PROPORTIONS :    2, 0.42       3, 0.58
  1718 2096-71-7       71    7.000       1828.    
     MULTIPLE LAYERS AND PROPORTIONS :    2, 0.42       3, 0.58
  1719 2096-71-365     71    365.0       1827.    
  1720 2089-12-171     12    171.0       1917.    
     MULTIPLE LAYERS AND PROPORTIONS :    2, 0.14       3, 0.86
  1721 2089-42-352     42    352.0       1788.    
     MULTIPLE LAYERS AND PROPORTIONS :    2, 0.14       3, 0.86
  1722 2089-48-350     48    350.0       1796.    
     MULTIPLE LAYERS AND PROPORTIONS :    2, 0.14       3, 0.86
  1723 2089-55-354     55    354.0       1801.    
     MULTIPLE LAYERS AND PROPORTIONS :    2, 0.14       3, 0.86
  1724 2089-61-6       61    6.000       1803.    
     MULTIPLE LAYERS AND PROPORTIONS :    2, 0.14       3, 0.86
  1725 2089-66-55      66    55.00       1803.    
     MULTIPLE LAYERS AND PROPORTIONS :    2, 0.14       3, 0.86
  1726 2089-71-6       71    6.000       1809.    
  1727 2089-71-365     71    365.0       1810.    
  1728 2088-42-352     42    352.0       1799.    
     MULTIPLE LAYERS AND PROPORTIONS :    2, 0.17       3, 0.83
  1729 2088-48-350     48    350.0       1807.    
     MULTIPLE LAYERS AND PROPORTIONS :    2, 0.17       3, 0.83
  1730 2088-55-354     55    354.0       1811.    
     MULTIPLE LAYERS AND PROPORTIONS :    2, 0.17       3, 0.83
  1731 2088-61-6       61    6.000       1813.    
     MULTIPLE LAYERS AND PROPORTIONS :    2, 0.17       3, 0.83
  1732 2088-66-48      66    48.00       1811.    
     MULTIPLE LAYERS AND PROPORTIONS :    2, 0.17       3, 0.83
  1733 2088-71-6       71    6.000       1818.    
  1734 2088-71-365     71    365.0       1819.    
  1735 2620-61-53      61    53.00       1751.    
  1736 2620-66-28      66    28.00       1754.    
  1737 2630-1-86        1    86.00       1889.    
 Observation within a steady-state time step has been moved to the end of the time step.
  1738 2615-21-353     21    353.0       1856.    
  1739 2615-27-20      27    20.00       1833.    
  1740 2615-36-64      36    64.00       1802.    
  1741 2615-42-350     42    350.0       1766.    
  1742 2618-56-23      56    23.00       1750.    
  1743 2618-61-53      61    53.00       1751.    
  1744 2618-66-28      66    28.00       1753.    
  1745 2616-1-109       1    109.0       1890.    
 Observation within a steady-state time step has been moved to the end of the time step.
  1746 2616-7-10        7   10.000       1889.    
  1747 2616-10-319     10    319.0       1878.    
  1748 2607-56-23      56    23.00       1754.    
  1749 2607-61-53      61    53.00       1751.    
  1750 2607-66-28      66    28.00       1752.    
  1751 2578-2-305       2    305.0       1903.    
  1752 2582-1-105       1    105.0       1898.    
 Observation within a steady-state time step has been moved to the end of the time step.
  1753 2577-56-23      56    23.00       1757.    
  1754 2577-61-53      61    53.00       1758.    
  1755 2577-66-28      66    28.00       1760.    
  1756 2573-56-27      56    27.00       1759.    
  1757 2553-33-188     33    188.0       1780.    
  1758 2553-56-27      56    27.00       1769.    
  1759 2574-1-107       1    107.0       1894.    
 Observation within a steady-state time step has been moved to the end of the time step.
  1760 2580-1-109       1    109.0       1894.    
 Observation within a steady-state time step has been moved to the end of the time step.
  1761 2571-21-354     21    354.0       1857.    
  1762 2498-37-34      37    34.00       1812.    
  1763 2498-42-350     42    350.0       1797.    
  1764 2519-56-23      56    23.00       1776.    
  1765 2507-48-300     48    300.0       1781.    
  1766 2507-55-318     55    318.0       1786.    
  1767 2507-60-313     60    313.0       1786.    
  1768 2507-65-364     65    364.0       1792.    
  1769 2507-71-350     71    350.0       1807.    
  1770 2508-48-300     48    300.0       1780.    
  1771 2508-55-318     55    318.0       1782.    
  1772 2508-60-313     60    313.0       1782.    
  1773 2508-65-364     65    364.0       1788.    
  1774 2508-71-350     71    350.0       1808.    
  1775 2448-56-25      56    25.00       1795.    
  1776 2448-61-52      61    52.00       1799.    
  1777 2448-66-20      66    20.00       1803.    
  1778 2311-56-23      56    23.00       1817.    
  1779 2311-61-53      61    53.00       1822.    
  1780 2311-66-28      66    28.00       1823.    
  1781 2084-2-305       2    305.0       1948.    
  1782 2099-42-352     42    352.0       1819.    
     MULTIPLE LAYERS AND PROPORTIONS :    2, 0.43       3, 0.57
  1783 2099-48-365     48    365.0       1824.    
     MULTIPLE LAYERS AND PROPORTIONS :    2, 0.43       3, 0.57
  1784 2099-55-354     55    354.0       1826.    
     MULTIPLE LAYERS AND PROPORTIONS :    2, 0.43       3, 0.57
  1785 2099-61-7       61    7.000       1837.    
     MULTIPLE LAYERS AND PROPORTIONS :    2, 0.43       3, 0.57
  1786 2099-65-344     65    344.0       1824.    
     MULTIPLE LAYERS AND PROPORTIONS :    2, 0.43       3, 0.57
  1787 2099-71-365     71    365.0       1840.    
     MULTIPLE LAYERS AND PROPORTIONS :    2, 0.43       3, 0.57
  1788 2087-71-365     71    365.0       1825.    
  1789 2110-71-365     71    365.0       1844.    
  1790 2040-65-364     65    364.0       1850.    
  1791 2040-71-365     71    365.0       1864.    
  1792 2034-65-364     65    364.0       1830.    
  1793 2034-71-12      71    12.00       1876.    
  1794 2034-71-365     71    365.0       1838.    
  1795 2009-71-8       71    8.000       1870.    
  1796 2009-71-365     71    365.0       1858.    
  1797 2008-71-8       71    8.000       1845.    
  1798 2008-71-365     71    365.0       1838.    
  1799 1923-16-315     16    315.0       1894.    
     MULTIPLE LAYERS AND PROPORTIONS :    2, 0.40       3, 0.60
  1800 1923-22-38      22    38.00       1884.    
     MULTIPLE LAYERS AND PROPORTIONS :    2, 0.40       3, 0.60
  1801 1923-27-24      27    24.00       1863.    
     MULTIPLE LAYERS AND PROPORTIONS :    2, 0.40       3, 0.60
  1802 1923-32-85      32    85.00       1840.    
     MULTIPLE LAYERS AND PROPORTIONS :    2, 0.40       3, 0.60
  1803 1923-36-1       36   1.0000       1840.    
     MULTIPLE LAYERS AND PROPORTIONS :    2, 0.40       3, 0.60
  1804 1923-42-352     42    352.0       1841.    
     MULTIPLE LAYERS AND PROPORTIONS :    2, 0.40       3, 0.60
  1805 1923-48-348     48    348.0       1841.    
     MULTIPLE LAYERS AND PROPORTIONS :    2, 0.40       3, 0.60
  1806 1923-55-354     55    354.0       1840.    
     MULTIPLE LAYERS AND PROPORTIONS :    2, 0.40       3, 0.60
  1807 1923-60-323     60    323.0       1856.    
     MULTIPLE LAYERS AND PROPORTIONS :    2, 0.40       3, 0.60
  1808 1923-65-343     65    343.0       1828.    
     MULTIPLE LAYERS AND PROPORTIONS :    2, 0.40       3, 0.60
  1809 1923-71-8       71    8.000       1848.    
     MULTIPLE LAYERS AND PROPORTIONS :    2, 0.40       3, 0.60
  1810 1923-71-365     71    365.0       1844.    
     MULTIPLE LAYERS AND PROPORTIONS :    2, 0.40       3, 0.60
  1811 1914-55-354     55    354.0       1840.    
  1812 1914-61-7       61    7.000       1855.    
  1813 1914-71-8       71    8.000       1848.    
  1814 1919-71-8       71    8.000       1853.    
  1815 1914-71-365     71    365.0       1844.    
  1816 1919-71-365     71    365.0       1847.    
  1817 1938-65-364     65    364.0       1848.    
  1818 1960-65-364     65    364.0       1842.    
  1819 1922-12-171     12    171.0       1950.    
     MULTIPLE LAYERS AND PROPORTIONS :    2, 0.39       3, 0.61
  1820 1922-42-352     42    352.0       1846.    
     MULTIPLE LAYERS AND PROPORTIONS :    2, 0.39       3, 0.61
  1821 1922-48-349     48    349.0       1847.    
     MULTIPLE LAYERS AND PROPORTIONS :    2, 0.39       3, 0.61
  1822 1922-55-354     55    354.0       1846.    
     MULTIPLE LAYERS AND PROPORTIONS :    2, 0.39       3, 0.61
  1823 1922-61-7       61    7.000       1873.    
     MULTIPLE LAYERS AND PROPORTIONS :    2, 0.39       3, 0.61
  1824 1922-71-8       71    8.000       1884.    
     MULTIPLE LAYERS AND PROPORTIONS :    2, 0.39       3, 0.61
  1825 1922-71-365     71    365.0       1872.    
  1826 1918-10-108     10    108.0       1955.    
  1827 1918-66-32      66    32.00       1850.    
  1828 1918-71-8       71    8.000       1881.    
  1829 1918-71-365     71    365.0       1866.    
  1830 1959-71-8       71    8.000       1888.    
  1831 1959-71-365     71    365.0       1873.    
  1832 1944-71-365     71    365.0       1882.    
  1833 1988-35-4       35    4.000       1872.    
     MULTIPLE LAYERS AND PROPORTIONS :    2, 0.38       3, 0.62
  1834 1908-56-18      56    18.00       1862.    
  1835 1908-66-18      66    18.00       1848.    
  1836 2638-33-46      33    46.00       2108.    
  1837 2648-35-95      35    95.00       2092.    
     MULTIPLE LAYERS AND PROPORTIONS :    1, 0.27       2, 0.73
  1838 2627-48-336     48    336.0       2088.    
     MULTIPLE LAYERS AND PROPORTIONS :    1, 0.31       2, 0.69
  1839 2619-2-1         2   1.0000       2145.    
     MULTIPLE LAYERS AND PROPORTIONS :    1, 0.73       2, 0.27
  1840 2642-12-43      12    43.00       2100.    
  1841 2649-17-23      17    23.00       2099.    
     MULTIPLE LAYERS AND PROPORTIONS :    1, 0.55       2, 0.45
  1842 2649-22-20      22    20.00       2098.    
     MULTIPLE LAYERS AND PROPORTIONS :    1, 0.55       2, 0.45
  1843 2649-42-363     42    363.0       2087.    
     MULTIPLE LAYERS AND PROPORTIONS :    1, 0.55       2, 0.45
  1844 2649-48-336     48    336.0       2084.    
     MULTIPLE LAYERS AND PROPORTIONS :    1, 0.55       2, 0.45
  1845 2649-56-20      56    20.00       2111.    
     MULTIPLE LAYERS AND PROPORTIONS :    1, 0.55       2, 0.45
  1846 2649-61-55      61    55.00       2081.    
     MULTIPLE LAYERS AND PROPORTIONS :    1, 0.55       2, 0.45
  1847 2628-1-365       1    365.0       2129.    
 Observation within a steady-state time step has been moved to the end of the time step.
  1848 2650-71-350     71    350.0       2071.    
  1849 2655-42-362     42    362.0       2084.    
  1850 2655-48-362     48    362.0       2083.    
  1851 2655-55-343     55    343.0       2093.    
  1852 2655-61-40      61    40.00       2080.    
  1853 2655-66-55      66    55.00       2057.    
  1854 2655-71-350     71    350.0       2061.    
  1855 2604-61-55      61    55.00       2078.    
  1856 2626-22-20      22    20.00       2106.    
     MULTIPLE LAYERS AND PROPORTIONS :    1, 0.37       2, 0.48       3, 0.15
  1857 2626-32-42      32    42.00       2110.    
     MULTIPLE LAYERS AND PROPORTIONS :    1, 0.37       2, 0.48       3, 0.15
  1858 2623-8-279       8    279.0       2109.    
  1859 2623-12-32      12    32.00       2110.    
  1860 2623-17-22      17    22.00       2109.    
  1861 2623-22-1       22   1.0000       2104.    
  1862 2623-27-34      27    34.00       2113.    
  1863 2608-12-43      12    43.00       2113.    
  1864 2608-17-23      17    23.00       2111.    
  1865 2608-22-20      22    20.00       2105.    
  1866 2608-32-42      32    42.00       2110.    
  1867 2629-3-217       3    217.0       2124.    
  1868 2606-56-26      56    26.00       2123.    
  1869 2606-61-55      61    55.00       2120.    
  1870 2606-66-20      66    20.00       2114.    
  1871 2592-12-43      12    43.00       2137.    
     MULTIPLE LAYERS AND PROPORTIONS :    1, 0.71       2, 0.29
  1872 2592-17-23      17    23.00       2133.    
     MULTIPLE LAYERS AND PROPORTIONS :    1, 0.71       2, 0.29
  1873 2592-22-23      22    23.00       2125.    
     MULTIPLE LAYERS AND PROPORTIONS :    1, 0.71       2, 0.29
  1874 2592-42-364     42    364.0       2123.    
     MULTIPLE LAYERS AND PROPORTIONS :    1, 0.71       2, 0.29
  1875 2592-48-336     48    336.0       2115.    
     MULTIPLE LAYERS AND PROPORTIONS :    1, 0.71       2, 0.29
  1876 2592-56-20      56    20.00       2137.    
     MULTIPLE LAYERS AND PROPORTIONS :    1, 0.71       2, 0.29
  1877 2592-61-55      61    55.00       2113.    
     MULTIPLE LAYERS AND PROPORTIONS :    1, 0.71       2, 0.29
  1878 2603-27-15      27    15.00       2121.    
     MULTIPLE LAYERS AND PROPORTIONS :    1, 0.75       2, 0.25
  1879 2603-42-362     42    362.0       2104.    
     MULTIPLE LAYERS AND PROPORTIONS :    1, 0.75       2, 0.25
  1880 2603-48-336     48    336.0       2101.    
     MULTIPLE LAYERS AND PROPORTIONS :    1, 0.75       2, 0.25
  1881 2603-55-343     55    343.0       2114.    
     MULTIPLE LAYERS AND PROPORTIONS :    1, 0.75       2, 0.25
  1882 2603-61-40      61    40.00       2099.    
     MULTIPLE LAYERS AND PROPORTIONS :    1, 0.75       2, 0.25
  1883 2603-65-343     65    343.0       2064.    
     MULTIPLE LAYERS AND PROPORTIONS :    1, 0.75       2, 0.25
  1884 2603-71-47      71    47.00       2078.    
     MULTIPLE LAYERS AND PROPORTIONS :    1, 0.75       2, 0.25
  1885 2603-71-350     71    350.0       2074.    
     MULTIPLE LAYERS AND PROPORTIONS :    1, 0.75       2, 0.25
  1886 2593-1-365       1    365.0       2142.    
 Observation within a steady-state time step has been moved to the end of the time step.
  1887 2558-22-23      22    23.00       2120.    
     MULTIPLE LAYERS AND PROPORTIONS :    1, 0.23       2, 0.77
  1888 2558-27-35      27    35.00       2127.    
     MULTIPLE LAYERS AND PROPORTIONS :    1, 0.23       2, 0.77
  1889 2558-42-362     42    362.0       2113.    
     MULTIPLE LAYERS AND PROPORTIONS :    1, 0.23       2, 0.77
  1890 2558-48-362     48    362.0       2109.    
     MULTIPLE LAYERS AND PROPORTIONS :    1, 0.23       2, 0.77
  1891 2558-55-343     55    343.0       2119.    
     MULTIPLE LAYERS AND PROPORTIONS :    1, 0.23       2, 0.77
  1892 2558-61-40      61    40.00       2106.    
     MULTIPLE LAYERS AND PROPORTIONS :    1, 0.23       2, 0.77
  1893 2651-42-356     42    356.0       2169.    
  1894 2632-66-33      66    33.00       2145.    
  1895 2632-71-63      71    63.00       2134.    
  1896 2644-48-345     48    345.0       2173.    
  1897 2644-71-63      71    63.00       2134.    
  1898 2645-42-356     42    356.0       2172.    
  1899 2645-48-345     48    345.0       2158.    
  1900 2645-66-33      66    33.00       2144.    
  1901 2645-71-63      71    63.00       2131.    
  1902 2624-71-63      71    63.00       2130.    
  1903 2609-42-365     42    365.0       2143.    
     MULTIPLE LAYERS AND PROPORTIONS :    1, 0.91       2, 0.09
  1904 2609-48-338     48    338.0       2138.    
     MULTIPLE LAYERS AND PROPORTIONS :    1, 0.91       2, 0.09
  1905 2609-56-24      56    24.00       2128.    
     MULTIPLE LAYERS AND PROPORTIONS :    1, 0.91       2, 0.09
  1906 2609-61-54      61    54.00       2121.    
     MULTIPLE LAYERS AND PROPORTIONS :    1, 0.91       2, 0.09
  1907 2609-66-26      66    26.00       2103.    
     MULTIPLE LAYERS AND PROPORTIONS :    1, 0.91       2, 0.09
  1908 2609-71-62      71    62.00       2095.    
     MULTIPLE LAYERS AND PROPORTIONS :    1, 0.91       2, 0.09
  1909 2631-56-24      56    24.00       2101.    
  1910 2631-61-54      61    54.00       2085.    
  1911 2631-66-33      66    33.00       2058.    
  1912 2652-17-24      17    24.00       2121.    
     MULTIPLE LAYERS AND PROPORTIONS :    1, 0.25       2, 0.75
  1913 2652-22-19      22    19.00       2113.    
     MULTIPLE LAYERS AND PROPORTIONS :    1, 0.25       2, 0.75
  1914 2652-27-33      27    33.00       2114.    
     MULTIPLE LAYERS AND PROPORTIONS :    1, 0.25       2, 0.75
  1915 2652-42-362     42    362.0       2099.    
     MULTIPLE LAYERS AND PROPORTIONS :    1, 0.25       2, 0.75
  1916 2634-66-19      66    19.00       2059.    
  1917 2633-56-23      56    23.00       2109.    
  1918 2647-1-51        1    51.00       2132.    
 Observation within a steady-state time step has been moved to the end of the time step.
  1919 2613-56-26      56    26.00       2121.    
     MULTIPLE LAYERS AND PROPORTIONS :    1, 0.28       2, 0.72
  1920 2622-11-34      11    34.00       2132.    
     MULTIPLE LAYERS AND PROPORTIONS :    1, 0.57       2, 0.43
  1921 2622-17-3       17    3.000       2120.    
     MULTIPLE LAYERS AND PROPORTIONS :    1, 0.57       2, 0.43
  1922 2622-22-25      22    25.00       2119.    
     MULTIPLE LAYERS AND PROPORTIONS :    1, 0.57       2, 0.43
  1923 2622-27-11      27    11.00       2120.    
     MULTIPLE LAYERS AND PROPORTIONS :    1, 0.57       2, 0.43
  1924 2622-32-46      32    46.00       2113.    
     MULTIPLE LAYERS AND PROPORTIONS :    1, 0.57       2, 0.43
  1925 2625-42-362     42    362.0       2107.    
     MULTIPLE LAYERS AND PROPORTIONS :    1, 0.30       2, 0.70
  1926 2605-42-362     42    362.0       2114.    
  1927 2605-48-362     48    362.0       2110.    
  1928 2605-55-343     55    343.0       2118.    
  1929 2605-61-38      61    38.00       2104.    
  1930 2605-66-49      66    49.00       2073.    
  1931 2605-71-40      71    40.00       2077.    
  1932 2605-71-350     71    350.0       2076.    
  1933 2570-8-37        8    37.00       2157.    
  1934 2570-12-46      12    46.00       2145.    
  1935 2570-17-24      17    24.00       2139.    
  1936 2570-22-25      22    25.00       2125.    
  1937 2560-22-25      22    25.00       2127.    
     MULTIPLE LAYERS AND PROPORTIONS :    1, 0.11       2, 0.61       3, 0.28
  1938 2560-27-34      27    34.00       2126.    
     MULTIPLE LAYERS AND PROPORTIONS :    1, 0.11       2, 0.61       3, 0.28
  1939 2560-32-36      32    36.00       2126.    
     MULTIPLE LAYERS AND PROPORTIONS :    1, 0.11       2, 0.61       3, 0.28
  1940 2560-42-363     42    363.0       2116.    
     MULTIPLE LAYERS AND PROPORTIONS :    1, 0.11       2, 0.61       3, 0.28
  1941 2545-56-20      56    20.00       2135.    
  1942 2544-1-50        1    50.00       2178.    
 Observation within a steady-state time step has been moved to the end of the time step.
  1943 2544-6-39        6    39.00       2167.    
  1944 2576-16-25      16    25.00       2150.    
  1945 2576-22-25      22    25.00       2142.    
  1946 2576-26-28      26    28.00       2140.    
  1947 2581-66-26      66    26.00       2077.    
  1948 2581-71-62      71    62.00       2076.    
  1949 2600-17-24      17    24.00       2133.    
     MULTIPLE LAYERS AND PROPORTIONS :    1, 0.54       2, 0.46
  1950 2600-22-25      22    25.00       2127.    
     MULTIPLE LAYERS AND PROPORTIONS :    1, 0.54       2, 0.46
  1951 2600-27-54      27    54.00       2129.    
     MULTIPLE LAYERS AND PROPORTIONS :    1, 0.54       2, 0.46
  1952 2600-32-36      32    36.00       2120.    
     MULTIPLE LAYERS AND PROPORTIONS :    1, 0.54       2, 0.46
  1953 2600-38-32      38    32.00       2112.    
     MULTIPLE LAYERS AND PROPORTIONS :    1, 0.54       2, 0.46
  1954 2600-39-32      39    32.00       2112.    
     MULTIPLE LAYERS AND PROPORTIONS :    1, 0.54       2, 0.46
  1955 2600-48-362     48    362.0       2111.    
     MULTIPLE LAYERS AND PROPORTIONS :    1, 0.54       2, 0.46
  1956 2600-55-343     55    343.0       2114.    
     MULTIPLE LAYERS AND PROPORTIONS :    1, 0.54       2, 0.46
  1957 2600-61-40      61    40.00       2102.    
     MULTIPLE LAYERS AND PROPORTIONS :    1, 0.54       2, 0.46
  1958 2600-66-49      66    49.00       2085.    
     MULTIPLE LAYERS AND PROPORTIONS :    1, 0.54       2, 0.46
  1959 2600-71-40      71    40.00       2075.    
     MULTIPLE LAYERS AND PROPORTIONS :    1, 0.54       2, 0.46
  1960 2600-71-350     71    350.0       2092.    
     MULTIPLE LAYERS AND PROPORTIONS :    1, 0.54       2, 0.46
  1961 2566-66-26      66    26.00       2067.    
  1962 2562-48-335     48    335.0       2109.    
     MULTIPLE LAYERS AND PROPORTIONS :    1, 0.18       2, 0.82
  1963 2562-56-25      56    25.00       2124.    
     MULTIPLE LAYERS AND PROPORTIONS :    1, 0.18       2, 0.82
  1964 2543-1-2         1    2.000       2177.    
 Observation within a steady-state time step has been moved to the end of the time step.
  1965 2546-7-316       7    316.0       2175.    
  1966 2546-12-46      12    46.00       2162.    
  1967 2546-17-33      17    33.00       2154.    
  1968 2546-22-25      22    25.00       2145.    
  1969 2546-27-11      27    11.00       2162.    
  1970 2546-32-46      32    46.00       2144.    
  1971 2546-38-46      38    46.00       2137.    
  1972 2546-39-32      39    32.00       2139.    
  1973 2546-56-25      56    25.00       2163.    
  1974 2541-17-3       17    3.000       2147.    
  1975 2541-27-11      27    11.00       2163.    
  1976 2548-42-362     42    362.0       2126.    
  1977 2548-48-362     48    362.0       2120.    
  1978 2548-55-347     55    347.0       2124.    
  1979 2548-60-362     60    362.0       2111.    
  1980 2547-66-48      66    48.00       2087.    
  1981 2547-71-12      71    12.00       2084.    
  1982 2547-71-350     71    350.0       2082.    
  1983 2551-42-352     42    352.0       2126.    
     MULTIPLE LAYERS AND PROPORTIONS :    1, 0.12       2, 0.88
  1984 2551-56-24      56    24.00       2127.    
     MULTIPLE LAYERS AND PROPORTIONS :    1, 0.12       2, 0.88
  1985 2551-66-26      66    26.00       2085.    
     MULTIPLE LAYERS AND PROPORTIONS :    1, 0.12       2, 0.88
  1986 2550-42-362     42    362.0       2130.    
  1987 2550-56-24      56    24.00       2122.    
  1988 2550-61-54      61    54.00       2107.    
  1989 2550-66-26      66    26.00       2085.    
  1990 2542-22-25      22    25.00       2156.    
     MULTIPLE LAYERS AND PROPORTIONS :    1, 0.57       2, 0.43
  1991 2542-27-54      27    54.00       2165.    
     MULTIPLE LAYERS AND PROPORTIONS :    1, 0.57       2, 0.43
  1992 2542-66-26      66    26.00       2089.    
     MULTIPLE LAYERS AND PROPORTIONS :    1, 0.57       2, 0.43
  1993 2552-56-24      56    24.00       2120.    
  1994 2552-61-54      61    54.00       2109.    
  1995 2552-66-33      66    33.00       2092.    
  1996 2552-71-62      71    62.00       2083.    
  1997 2598-1-274       1    274.0       2210.    
 Observation within a steady-state time step has been moved to the end of the time step.
  1998 2598-6-284       6    284.0       2205.    
  1999 2598-11-62      11    62.00       2197.    
  2000 2584-12-325     12    325.0       2205.    
  2001 2584-17-3       17    3.000       2190.    
  2002 2584-22-31      22    31.00       2181.    
  2003 2584-27-11      27    11.00       2173.    
  2004 2540-48-357     48    357.0       2153.    
  2005 2540-55-343     55    343.0       2142.    
  2006 2540-61-38      61    38.00       2135.    
  2007 2540-66-59      66    59.00       2125.    
  2008 2540-71-40      71    40.00       2122.    
  2009 2540-71-365     71    365.0       2122.    
  2010 2597-42-335     42    335.0       2153.    
  2011 2597-48-357     48    357.0       2151.    
  2012 2597-55-343     55    343.0       2141.    
  2013 2597-61-38      61    38.00       2136.    
  2014 2597-66-59      66    59.00       2129.    
  2015 2597-71-40      71    40.00       2121.    
  2016 2597-71-365     71    365.0       2119.    
  2017 2565-48-342     48    342.0       2155.    
  2018 2575-55-343     55    343.0       2203.    
  2019 2539-11-34      11    34.00       2244.    
  2020 2539-22-79      22    79.00       2212.    
  2021 2539-32-46      32    46.00       2200.    
  2022 2539-37-34      37    34.00       2187.    
  2023 2539-48-337     48    337.0       2174.    
  2024 2539-60-321     60    321.0       2158.    
  2025 2539-65-299     65    299.0       2144.    
  2026 2539-71-13      71    13.00       2144.    
  2027 2539-71-365     71    365.0       2143.    
  2028 2478-61-31      61    31.00       2169.    
  2029 2478-66-1       66   1.0000       2150.    
  2030 2478-71-41      71    41.00       2148.    
  2031 2478-71-365     71    365.0       2152.    
  2032 2474-16-298     16    298.0       2273.    
  2033 2474-22-32      22    32.00       2270.    
  2034 2474-27-10      27   10.000       2263.    
  2035 2531-42-362     42    362.0       2157.    
  2036 2531-48-357     48    357.0       2153.    
  2037 2531-55-343     55    343.0       2141.    
  2038 2531-61-38      61    38.00       2134.    
  2039 2531-66-59      66    59.00       2123.    
  2040 2531-71-40      71    40.00       2121.    
  2041 2531-71-365     71    365.0       2121.    
  2042 2504-71-63      71    63.00       2155.    
  2043 2520-71-62      71    62.00       2132.    
  2044 2482-42-362     42    362.0       2162.    
     MULTIPLE LAYERS AND PROPORTIONS :    1, 0.18       2, 0.82
  2045 2482-48-362     48    362.0       2150.    
     MULTIPLE LAYERS AND PROPORTIONS :    1, 0.18       2, 0.82
  2046 2482-55-343     55    343.0       2143.    
     MULTIPLE LAYERS AND PROPORTIONS :    1, 0.18       2, 0.82
  2047 2482-61-40      61    40.00       2132.    
     MULTIPLE LAYERS AND PROPORTIONS :    1, 0.18       2, 0.82
  2048 2482-66-45      66    45.00       2121.    
     MULTIPLE LAYERS AND PROPORTIONS :    1, 0.18       2, 0.82
  2049 2482-71-26      71    26.00       2126.    
     MULTIPLE LAYERS AND PROPORTIONS :    1, 0.18       2, 0.82
  2050 2482-71-365     71    365.0       2127.    
     MULTIPLE LAYERS AND PROPORTIONS :    1, 0.18       2, 0.82
  2051 2470-55-343     55    343.0       2152.    
  2052 2470-66-45      66    45.00       2131.    
  2053 2470-71-41      71    41.00       2133.    
  2054 2470-71-365     71    365.0       2136.    
  2055 2473-55-343     55    343.0       2154.    
  2056 2476-48-362     48    362.0       2155.    
  2057 2476-55-343     55    343.0       2151.    
  2058 2476-61-32      61    32.00       2143.    
  2059 2476-66-45      66    45.00       2142.    
  2060 2476-71-41      71    41.00       2132.    
  2061 2476-71-365     71    365.0       2135.    
  2062 2523-37-1       37   1.0000       2161.    
  2063 2512-71-62      71    62.00       2101.    
  2064 2513-17-24      17    24.00       2182.    
  2065 2513-22-25      22    25.00       2173.    
  2066 2513-26-362     26    362.0       2168.    
  2067 2487-42-355     42    355.0       2146.    
  2068 2467-12-46      12    46.00       2194.    
  2069 2467-17-3       17    3.000       2183.    
  2070 2467-22-25      22    25.00       2173.    
  2071 2467-27-54      27    54.00       2176.    
  2072 2467-32-46      32    46.00       2155.    
  2073 2467-38-32      38    32.00       2148.    
  2074 2466-2-128       2    128.0       2235.    
  2075 2496-42-335     42    335.0       2150.    
  2076 2496-48-362     48    362.0       2143.    
  2077 2496-55-343     55    343.0       2132.    
  2078 2496-61-32      61    32.00       2123.    
  2079 2496-66-45      66    45.00       2109.    
  2080 2496-71-40      71    40.00       2113.    
  2081 2496-71-365     71    365.0       2113.    
  2082 2486-42-362     42    362.0       2150.    
  2083 2486-48-362     48    362.0       2143.    
  2084 2486-55-343     55    343.0       2133.    
  2085 2486-60-344     60    344.0       2117.    
  2086 2486-66-45      66    45.00       2110.    
  2087 2486-71-26      71    26.00       2111.    
  2088 2486-71-365     71    365.0       2115.    
  2089 2499-33-95      33    95.00       2163.    
     MULTIPLE LAYERS AND PROPORTIONS :    1, 0.52       2, 0.48
  2090 2493-66-33      66    33.00       2109.    
  2091 2490-66-45      66    45.00       2105.    
  2092 2490-71-26      71    26.00       2099.    
  2093 2490-71-365     71    365.0       2101.    
  2094 2538-17-24      17    24.00       2177.    
     MULTIPLE LAYERS AND PROPORTIONS :    1, 0.25       2, 0.75
  2095 2538-22-25      22    25.00       2168.    
     MULTIPLE LAYERS AND PROPORTIONS :    1, 0.25       2, 0.75
  2096 2538-27-47      27    47.00       2170.    
     MULTIPLE LAYERS AND PROPORTIONS :    1, 0.25       2, 0.75
  2097 2538-32-46      32    46.00       2157.    
     MULTIPLE LAYERS AND PROPORTIONS :    1, 0.25       2, 0.75
  2098 2538-37-34      37    34.00       2146.    
     MULTIPLE LAYERS AND PROPORTIONS :    1, 0.25       2, 0.75
  2099 2538-42-363     42    363.0       2138.    
     MULTIPLE LAYERS AND PROPORTIONS :    1, 0.25       2, 0.75
  2100 2538-48-338     48    338.0       2134.    
     MULTIPLE LAYERS AND PROPORTIONS :    1, 0.25       2, 0.75
  2101 2538-56-24      56    24.00       2127.    
     MULTIPLE LAYERS AND PROPORTIONS :    1, 0.25       2, 0.75
  2102 2538-60-321     60    321.0       2116.    
     MULTIPLE LAYERS AND PROPORTIONS :    1, 0.25       2, 0.75
  2103 2534-56-24      56    24.00       2132.    
  2104 2534-66-19      66    19.00       2100.    
  2105 2532-56-24      56    24.00       2125.    
  2106 2500-71-62      71    62.00       2105.    
  2107 2517-48-362     48    362.0       2129.    
  2108 2517-55-343     55    343.0       2127.    
  2109 2517-61-32      61    32.00       2115.    
  2110 2517-66-40      66    40.00       2094.    
  2111 2517-71-350     71    350.0       2088.    
  2112 2514-17-3       17    3.000       2169.    
  2113 2475-22-25      22    25.00       2153.    
     MULTIPLE LAYERS AND PROPORTIONS :    1, 0.31       2, 0.69
  2114 2475-27-11      27    11.00       2143.    
     MULTIPLE LAYERS AND PROPORTIONS :    1, 0.31       2, 0.69
  2115 2475-43-32      43    32.00       2135.    
     MULTIPLE LAYERS AND PROPORTIONS :    1, 0.31       2, 0.69
  2116 2475-48-362     48    362.0       2133.    
     MULTIPLE LAYERS AND PROPORTIONS :    1, 0.31       2, 0.69
  2117 2475-55-347     55    347.0       2130.    
     MULTIPLE LAYERS AND PROPORTIONS :    1, 0.31       2, 0.69
  2118 2475-60-362     60    362.0       2121.    
     MULTIPLE LAYERS AND PROPORTIONS :    1, 0.31       2, 0.69
  2119 2475-66-1       66   1.0000       2097.    
     MULTIPLE LAYERS AND PROPORTIONS :    1, 0.31       2, 0.69
  2120 2475-71-350     71    350.0       2090.    
     MULTIPLE LAYERS AND PROPORTIONS :    1, 0.31       2, 0.69
  2121 2480-22-25      22    25.00       2178.    
     MULTIPLE LAYERS AND PROPORTIONS :    1, 0.42       2, 0.58
  2122 2480-42-362     42    362.0       2140.    
     MULTIPLE LAYERS AND PROPORTIONS :    1, 0.42       2, 0.58
  2123 2480-48-362     48    362.0       2136.    
     MULTIPLE LAYERS AND PROPORTIONS :    1, 0.42       2, 0.58
  2124 2480-56-5       56    5.000       2140.    
     MULTIPLE LAYERS AND PROPORTIONS :    1, 0.42       2, 0.58
  2125 2480-61-5       61    5.000       2134.    
     MULTIPLE LAYERS AND PROPORTIONS :    1, 0.42       2, 0.58
  2126 2480-66-40      66    40.00       2106.    
     MULTIPLE LAYERS AND PROPORTIONS :    1, 0.42       2, 0.58
  2127 2480-71-26      71    26.00       2096.    
     MULTIPLE LAYERS AND PROPORTIONS :    1, 0.42       2, 0.58
  2128 2480-71-350     71    350.0       2098.    
     MULTIPLE LAYERS AND PROPORTIONS :    1, 0.42       2, 0.58
  2129 2471-17-3       17    3.000       2179.    
  2130 2471-27-11      27    11.00       2163.    
  2131 2536-48-362     48    362.0       2124.    
     MULTIPLE LAYERS AND PROPORTIONS :    1, 0.43       2, 0.57
  2132 2536-55-347     55    347.0       2125.    
     MULTIPLE LAYERS AND PROPORTIONS :    1, 0.43       2, 0.57
  2133 2536-60-362     60    362.0       2113.    
     MULTIPLE LAYERS AND PROPORTIONS :    1, 0.43       2, 0.57
  2134 2536-66-40      66    40.00       2091.    
     MULTIPLE LAYERS AND PROPORTIONS :    1, 0.43       2, 0.57
  2135 2536-71-350     71    350.0       2085.    
     MULTIPLE LAYERS AND PROPORTIONS :    1, 0.43       2, 0.57
  2136 2528-42-362     42    362.0       2129.    
     MULTIPLE LAYERS AND PROPORTIONS :    1, 0.42       2, 0.58
  2137 2528-48-362     48    362.0       2123.    
     MULTIPLE LAYERS AND PROPORTIONS :    1, 0.42       2, 0.58
  2138 2528-55-347     55    347.0       2126.    
     MULTIPLE LAYERS AND PROPORTIONS :    1, 0.42       2, 0.58
  2139 2528-60-362     60    362.0       2113.    
     MULTIPLE LAYERS AND PROPORTIONS :    1, 0.42       2, 0.58
  2140 2528-66-48      66    48.00       2088.    
     MULTIPLE LAYERS AND PROPORTIONS :    1, 0.42       2, 0.58
  2141 2528-71-350     71    350.0       2082.    
     MULTIPLE LAYERS AND PROPORTIONS :    1, 0.42       2, 0.58
  2142 2509-17-3       17    3.000       2148.    
  2143 2509-31-351     31    351.0       2138.    
  2144 2521-42-363     42    363.0       2132.    
     MULTIPLE LAYERS AND PROPORTIONS :    1, 0.28       2, 0.72
  2145 2521-48-335     48    335.0       2126.    
     MULTIPLE LAYERS AND PROPORTIONS :    1, 0.28       2, 0.72
  2146 2521-56-25      56    25.00       2133.    
     MULTIPLE LAYERS AND PROPORTIONS :    1, 0.28       2, 0.72
  2147 2521-61-56      61    56.00       2117.    
     MULTIPLE LAYERS AND PROPORTIONS :    1, 0.28       2, 0.72
  2148 2505-56-25      56    25.00       2133.    
  2149 2506-48-335     48    335.0       2129.    
     MULTIPLE LAYERS AND PROPORTIONS :    1, 0.11       2, 0.89
  2150 2506-56-25      56    25.00       2133.    
     MULTIPLE LAYERS AND PROPORTIONS :    1, 0.11       2, 0.89
  2151 2506-61-56      61    56.00       2082.    
     MULTIPLE LAYERS AND PROPORTIONS :    1, 0.11       2, 0.89
  2152 2506-66-18      66    18.00       2092.    
     MULTIPLE LAYERS AND PROPORTIONS :    1, 0.11       2, 0.89
  2153 2506-71-11      71    11.00       2089.    
     MULTIPLE LAYERS AND PROPORTIONS :    1, 0.11       2, 0.89
  2154 2506-71-365     71    365.0       2089.    
     MULTIPLE LAYERS AND PROPORTIONS :    1, 0.11       2, 0.89
  2155 2488-1-357       1    357.0       2201.    
 Observation within a steady-state time step has been moved to the end of the time step.
  2156 2488-7-316       7    316.0       2188.    
  2157 2488-10-283     10    283.0       2174.    
  2158 2488-17-33      17    33.00       2162.    
  2159 2488-22-25      22    25.00       2152.    
  2160 2488-27-47      27    47.00       2156.    
  2161 2488-37-27      37    27.00       2136.    
  2162 2472-1-357       1    357.0       2208.    
 Observation within a steady-state time step has been moved to the end of the time step.
  2163 2472-8-36        8    36.00       2189.    
  2164 2472-12-50      12    50.00       2174.    
  2165 2472-17-33      17    33.00       2162.    
  2166 2537-22-25      22    25.00       2136.    
  2167 2537-27-47      27    47.00       2145.    
  2168 2537-32-46      32    46.00       2140.    
  2169 2537-37-34      37    34.00       2138.    
  2170 2537-42-363     42    363.0       2125.    
  2171 2537-56-20      56    20.00       2135.    
  2172 2497-42-363     42    363.0       2131.    
  2173 2497-48-337     48    337.0       2126.    
  2174 2497-56-20      56    20.00       2135.    
  2175 2434-48-362     48    362.0       2131.    
  2176 2434-55-346     55    346.0       2132.    
  2177 2434-61-6       61    6.000       2124.    
  2178 2434-66-48      66    48.00       2095.    
  2179 2434-71-12      71    12.00       2089.    
  2180 2434-71-350     71    350.0       2088.    
  2181 2355-42-362     42    362.0       2138.    
     MULTIPLE LAYERS AND PROPORTIONS :    2, 0.78       3, 0.22
  2182 2355-48-362     48    362.0       2135.    
     MULTIPLE LAYERS AND PROPORTIONS :    2, 0.78       3, 0.22
  2183 2355-55-343     55    343.0       2134.    
     MULTIPLE LAYERS AND PROPORTIONS :    2, 0.78       3, 0.22
  2184 2355-61-40      61    40.00       2122.    
     MULTIPLE LAYERS AND PROPORTIONS :    2, 0.78       3, 0.22
  2185 2355-71-47      71    47.00       2094.    
  2186 2355-71-350     71    350.0       2092.    
  2187 2428-56-38      56    38.00       2135.    
  2188 2428-66-48      66    48.00       2102.    
  2189 2428-71-5       71    5.000       2091.    
  2190 2428-71-365     71    365.0       2091.    
  2191 2433-66-48      66    48.00       2099.    
  2192 2433-71-5       71    5.000       2091.    
  2193 2433-71-365     71    365.0       2087.    
  2194 2403-48-362     48    362.0       2122.    
     MULTIPLE LAYERS AND PROPORTIONS :    1, 0.25       2, 0.75
  2195 2403-55-343     55    343.0       2126.    
     MULTIPLE LAYERS AND PROPORTIONS :    1, 0.25       2, 0.75
  2196 2403-66-59      66    59.00       2098.    
     MULTIPLE LAYERS AND PROPORTIONS :    1, 0.25       2, 0.75
  2197 2403-71-47      71    47.00       2091.    
     MULTIPLE LAYERS AND PROPORTIONS :    1, 0.25       2, 0.75
  2198 2403-71-365     71    365.0       2090.    
     MULTIPLE LAYERS AND PROPORTIONS :    1, 0.25       2, 0.75
  2199 2410-66-59      66    59.00       2100.    
  2200 2410-71-47      71    47.00       2091.    
  2201 2410-71-365     71    365.0       2090.    
  2202 2462-8-38        8    38.00       2184.    
  2203 2464-12-50      12    50.00       2168.    
  2204 2464-17-23      17    23.00       2159.    
  2205 2464-22-23      22    23.00       2149.    
  2206 2459-42-362     42    362.0       2136.    
  2207 2459-48-362     48    362.0       2131.    
  2208 2409-66-48      66    48.00       2103.    
  2209 2409-71-12      71    12.00       2092.    
  2210 2357-12-50      12    50.00       2196.    
  2211 2357-17-35      17    35.00       2180.    
  2212 2357-22-23      22    23.00       2170.    
  2213 2357-27-34      27    34.00       2169.    
  2214 2357-37-34      37    34.00       2157.    
  2215 2357-66-48      66    48.00       2119.    
  2216 2357-71-12      71    12.00       2085.    
  2217 2357-71-365     71    365.0       2093.    
  2218 2336-61-21      61    21.00       2132.    
  2219 2363-56-38      56    38.00       2144.    
  2220 2363-66-48      66    48.00       2121.    
  2221 2363-71-5       71    5.000       2102.    
  2222 2363-71-365     71    365.0       2103.    
  2223 2460-22-25      22    25.00       2164.    
     MULTIPLE LAYERS AND PROPORTIONS :    1, 0.38       2, 0.62
  2224 2460-48-362     48    362.0       2136.    
     MULTIPLE LAYERS AND PROPORTIONS :    1, 0.38       2, 0.62
  2225 2460-55-343     55    343.0       2134.    
     MULTIPLE LAYERS AND PROPORTIONS :    1, 0.38       2, 0.62
  2226 2460-61-20      61    20.00       2124.    
     MULTIPLE LAYERS AND PROPORTIONS :    1, 0.38       2, 0.62
  2227 2460-66-49      66    49.00       2104.    
     MULTIPLE LAYERS AND PROPORTIONS :    1, 0.38       2, 0.62
  2228 2460-71-41      71    41.00       2096.    
     MULTIPLE LAYERS AND PROPORTIONS :    1, 0.38       2, 0.62
  2229 2460-71-350     71    350.0       2094.    
     MULTIPLE LAYERS AND PROPORTIONS :    1, 0.38       2, 0.62
  2230 2399-56-38      56    38.00       2138.    
  2231 2399-66-48      66    48.00       2114.    
  2232 2399-71-5       71    5.000       2100.    
  2233 2399-71-365     71    365.0       2099.    
  2234 2373-56-6       56    6.000       2140.    
     MULTIPLE LAYERS AND PROPORTIONS :    1, 0.25       2, 0.60       3, 0.15
  2235 2373-61-6       61    6.000       2129.    
     MULTIPLE LAYERS AND PROPORTIONS :    1, 0.25       2, 0.60       3, 0.15
  2236 2373-66-48      66    48.00       2121.    
     MULTIPLE LAYERS AND PROPORTIONS :    1, 0.25       2, 0.60       3, 0.15
  2237 2373-71-12      71    12.00       2104.    
     MULTIPLE LAYERS AND PROPORTIONS :    1, 0.25       2, 0.60       3, 0.15
  2238 2373-71-365     71    365.0       2104.    
     MULTIPLE LAYERS AND PROPORTIONS :    1, 0.25       2, 0.60       3, 0.15
  2239 2356-56-38      56    38.00       2142.    
  2240 2356-66-42      66    42.00       2133.    
  2241 2356-71-5       71    5.000       2113.    
  2242 2356-71-365     71    365.0       2115.    
  2243 2389-8-37        8    37.00       2225.    
  2244 2389-12-38      12    38.00       2209.    
  2245 2388-17-34      17    34.00       2187.    
  2246 2388-22-25      22    25.00       2175.    
  2247 2388-32-46      32    46.00       2167.    
  2248 2388-38-32      38    32.00       2160.    
  2249 2343-12-50      12    50.00       2205.    
     MULTIPLE LAYERS AND PROPORTIONS :    1, 0.60       2, 0.40
  2250 2343-17-35      17    35.00       2190.    
     MULTIPLE LAYERS AND PROPORTIONS :    1, 0.60       2, 0.40
  2251 2343-22-24      22    24.00       2178.    
     MULTIPLE LAYERS AND PROPORTIONS :    1, 0.60       2, 0.40
  2252 2343-61-21      61    21.00       2153.    
     MULTIPLE LAYERS AND PROPORTIONS :    1, 0.60       2, 0.40
  2253 2427-42-363     42    363.0       2149.    
     MULTIPLE LAYERS AND PROPORTIONS :    1, 0.33       2, 0.67
  2254 2427-48-337     48    337.0       2143.    
     MULTIPLE LAYERS AND PROPORTIONS :    1, 0.33       2, 0.67
  2255 2427-61-20      61    20.00       2124.    
     MULTIPLE LAYERS AND PROPORTIONS :    1, 0.33       2, 0.67
  2256 2427-66-31      66    31.00       2109.    
     MULTIPLE LAYERS AND PROPORTIONS :    1, 0.33       2, 0.67
  2257 2418-10-262     10    262.0       2219.    
  2258 2408-10-262     10    262.0       2234.    
  2259 2431-7-316       7    316.0       2228.    
  2260 2431-12-38      12    38.00       2209.    
  2261 2446-22-25      22    25.00       2182.    
     MULTIPLE LAYERS AND PROPORTIONS :    1, 0.60       2, 0.40
  2262 2447-7-32        7    32.00       2226.    
  2263 2432-7-316       7    316.0       2220.    
  2264 2432-12-33      12    33.00       2203.    
  2265 2432-22-1       22   1.0000       2179.    
  2266 2432-42-363     42    363.0       2152.    
  2267 2405-16-293     16    293.0       2215.    
  2268 2383-12-50      12    50.00       2224.    
  2269 2383-17-24      17    24.00       2210.    
  2270 2383-22-24      22    24.00       2199.    
  2271 2383-27-11      27    11.00       2194.    
  2272 2383-32-48      32    48.00       2181.    
  2273 2387-61-20      61    20.00       2131.    
     MULTIPLE LAYERS AND PROPORTIONS :    1, 0.18       2, 0.82
  2274 2387-66-28      66    28.00       2117.    
     MULTIPLE LAYERS AND PROPORTIONS :    1, 0.18       2, 0.82
  2275 2387-71-54      71    54.00       2115.    
     MULTIPLE LAYERS AND PROPORTIONS :    1, 0.18       2, 0.82
  2276 2372-27-47      27    47.00       2181.    
  2277 2372-42-363     42    363.0       2156.    
  2278 2372-56-19      56    19.00       2142.    
  2279 2372-71-54      71    54.00       2109.    
  2280 2332-61-20      61    20.00       2135.    
     MULTIPLE LAYERS AND PROPORTIONS :    1, 0.18       2, 0.82
  2281 2332-66-28      66    28.00       2141.    
     MULTIPLE LAYERS AND PROPORTIONS :    1, 0.18       2, 0.82
  2282 2332-71-54      71    54.00       2112.    
     MULTIPLE LAYERS AND PROPORTIONS :    1, 0.18       2, 0.82
  2283 2437-22-24      22    24.00       2213.    
  2284 2437-27-15      27    15.00       2208.    
  2285 2437-32-48      32    48.00       2196.    
  2286 2438-12-306     12    306.0       2233.    
  2287 2438-16-298     16    298.0       2223.    
  2288 2430-42-363     42    363.0       2158.    
     MULTIPLE LAYERS AND PROPORTIONS :    1, 0.28       2, 0.72
  2289 2430-48-337     48    337.0       2145.    
     MULTIPLE LAYERS AND PROPORTIONS :    1, 0.28       2, 0.72
  2290 2430-56-19      56    19.00       2141.    
     MULTIPLE LAYERS AND PROPORTIONS :    1, 0.28       2, 0.72
  2291 2430-66-28      66    28.00       2118.    
     MULTIPLE LAYERS AND PROPORTIONS :    1, 0.28       2, 0.72
  2292 2430-71-54      71    54.00       2126.    
     MULTIPLE LAYERS AND PROPORTIONS :    1, 0.28       2, 0.72
  2293 2444-10-264     10    264.0       2239.    
  2294 2424-10-265     10    265.0       2235.    
  2295 2425-10-265     10    265.0       2237.    
  2296 2414-10-263     10    263.0       2232.    
  2297 2458-42-362     42    362.0       2153.    
     MULTIPLE LAYERS AND PROPORTIONS :    1, 0.19       2, 0.81
  2298 2458-48-362     48    362.0       2143.    
     MULTIPLE LAYERS AND PROPORTIONS :    1, 0.19       2, 0.81
  2299 2458-56-32      56    32.00       2135.    
     MULTIPLE LAYERS AND PROPORTIONS :    1, 0.19       2, 0.81
  2300 2458-61-20      61    20.00       2125.    
     MULTIPLE LAYERS AND PROPORTIONS :    1, 0.19       2, 0.81
  2301 2458-66-49      66    49.00       2112.    
     MULTIPLE LAYERS AND PROPORTIONS :    1, 0.19       2, 0.81
  2302 2458-71-41      71    41.00       2118.    
     MULTIPLE LAYERS AND PROPORTIONS :    1, 0.19       2, 0.81
  2303 2458-71-365     71    365.0       2118.    
     MULTIPLE LAYERS AND PROPORTIONS :    1, 0.19       2, 0.81
  2304 2439-42-363     42    363.0       2156.    
     MULTIPLE LAYERS AND PROPORTIONS :    1, 0.25       2, 0.75
  2305 2439-48-337     48    337.0       2148.    
     MULTIPLE LAYERS AND PROPORTIONS :    1, 0.25       2, 0.75
  2306 2439-56-19      56    19.00       2143.    
     MULTIPLE LAYERS AND PROPORTIONS :    1, 0.25       2, 0.75
  2307 2439-61-20      61    20.00       2130.    
     MULTIPLE LAYERS AND PROPORTIONS :    1, 0.25       2, 0.75
  2308 2439-66-31      66    31.00       2114.    
     MULTIPLE LAYERS AND PROPORTIONS :    1, 0.25       2, 0.75
  2309 2415-1-52        1    52.00       2259.    
 Observation within a steady-state time step has been moved to the end of the time step.
  2310 2407-27-47      27    47.00       2201.    
     MULTIPLE LAYERS AND PROPORTIONS :    1, 0.30       2, 0.70
  2311 2407-61-20      61    20.00       2133.    
     MULTIPLE LAYERS AND PROPORTIONS :    1, 0.30       2, 0.70
  2312 2407-66-28      66    28.00       2118.    
     MULTIPLE LAYERS AND PROPORTIONS :    1, 0.30       2, 0.70
  2313 2407-71-54      71    54.00       2127.    
     MULTIPLE LAYERS AND PROPORTIONS :    1, 0.30       2, 0.70
  2314 2402-10-263     10    263.0       2229.    
  2315 2394-56-26      56    26.00       2149.    
  2316 2394-61-61      61    61.00       2142.    
  2317 2394-66-25      66    25.00       2129.    
  2318 2386-60-341     60    341.0       2130.    
  2319 2386-66-49      66    49.00       2121.    
  2320 2386-71-40      71    40.00       2124.    
  2321 2386-71-365     71    365.0       2125.    
  2322 2453-27-47      27    47.00       2278.    
  2323 2413-2-121       2    121.0       2301.    
  2324 2412-12-304     12    304.0       2252.    
     MULTIPLE LAYERS AND PROPORTIONS :    1, 0.97       2, 0.03
  2325 2412-16-298     16    298.0       2240.    
     MULTIPLE LAYERS AND PROPORTIONS :    1, 0.97       2, 0.03
  2326 2412-16-364     16    364.0       2242.    
     MULTIPLE LAYERS AND PROPORTIONS :    1, 0.97       2, 0.03
  2327 2398-1-357       1    357.0       2279.    
 Observation within a steady-state time step has been moved to the end of the time step.
  2328 2398-7-2         7    2.000       2288.    
  2329 2395-42-363     42    363.0       2217.    
     MULTIPLE LAYERS AND PROPORTIONS :    1, 0.70       2, 0.30
  2330 2395-48-337     48    337.0       2208.    
     MULTIPLE LAYERS AND PROPORTIONS :    1, 0.70       2, 0.30
  2331 2385-42-363     42    363.0       2211.    
     MULTIPLE LAYERS AND PROPORTIONS :    1, 0.68       2, 0.32
  2332 2385-48-362     48    362.0       2200.    
     MULTIPLE LAYERS AND PROPORTIONS :    1, 0.68       2, 0.32
  2333 2385-55-346     55    346.0       2189.    
     MULTIPLE LAYERS AND PROPORTIONS :    1, 0.68       2, 0.32
  2334 2385-61-31      61    31.00       2180.    
     MULTIPLE LAYERS AND PROPORTIONS :    1, 0.68       2, 0.32
  2335 2385-66-1       66   1.0000       2161.    
     MULTIPLE LAYERS AND PROPORTIONS :    1, 0.68       2, 0.32
  2336 2385-71-41      71    41.00       2161.    
     MULTIPLE LAYERS AND PROPORTIONS :    1, 0.68       2, 0.32
  2337 2385-71-365     71    365.0       2167.    
     MULTIPLE LAYERS AND PROPORTIONS :    1, 0.68       2, 0.32
  2338 2282-12-46      12    46.00       2278.    
  2339 2282-17-24      17    24.00       2263.    
  2340 2282-22-24      22    24.00       2258.    
  2341 2282-32-48      32    48.00       2238.    
  2342 2326-26-293     26    293.0       2237.    
     MULTIPLE LAYERS AND PROPORTIONS :    1, 0.30       2, 0.58       3, 0.12
  2343 2326-42-363     42    363.0       2208.    
     MULTIPLE LAYERS AND PROPORTIONS :    1, 0.30       2, 0.58       3, 0.12
  2344 2326-48-362     48    362.0       2194.    
     MULTIPLE LAYERS AND PROPORTIONS :    1, 0.30       2, 0.58       3, 0.12
  2345 2326-56-33      56    33.00       2168.    
     MULTIPLE LAYERS AND PROPORTIONS :    1, 0.30       2, 0.58       3, 0.12
  2346 2326-61-41      61    41.00       2167.    
     MULTIPLE LAYERS AND PROPORTIONS :    1, 0.30       2, 0.58       3, 0.12
  2347 2326-66-45      66    45.00       2152.    
     MULTIPLE LAYERS AND PROPORTIONS :    1, 0.30       2, 0.58       3, 0.12
  2348 2326-71-41      71    41.00       2156.    
     MULTIPLE LAYERS AND PROPORTIONS :    1, 0.30       2, 0.58       3, 0.12
  2349 2326-71-365     71    365.0       2160.    
     MULTIPLE LAYERS AND PROPORTIONS :    1, 0.30       2, 0.58       3, 0.12
  2350 2260-56-26      56    26.00       2172.    
  2351 2260-61-61      61    61.00       2161.    
  2352 2260-66-25      66    25.00       2147.    
  2353 2260-71-61      71    61.00       2152.    
  2354 2202-71-61      71    61.00       2133.    
  2355 2127-42-335     42    335.0       2192.    
     MULTIPLE LAYERS AND PROPORTIONS :    1, 0.59       2, 0.41
  2356 2283-7-311       7    311.0       2250.    
     MULTIPLE LAYERS AND PROPORTIONS :    1, 0.98       2, 0.02
  2357 2283-17-24      17    24.00       2219.    
     MULTIPLE LAYERS AND PROPORTIONS :    1, 0.98       2, 0.02
  2358 2283-22-24      22    24.00       2212.    
     MULTIPLE LAYERS AND PROPORTIONS :    1, 0.98       2, 0.02
  2359 2283-27-47      27    47.00       2202.    
     MULTIPLE LAYERS AND PROPORTIONS :    1, 0.98       2, 0.02
  2360 2283-32-48      32    48.00       2187.    
     MULTIPLE LAYERS AND PROPORTIONS :    1, 0.98       2, 0.02
  2361 2283-35-15      35    15.00       2180.    
     MULTIPLE LAYERS AND PROPORTIONS :    1, 0.98       2, 0.02
  2362 2291-37-32      37    32.00       2177.    
     MULTIPLE LAYERS AND PROPORTIONS :    1, 0.31       2, 0.69
  2363 2291-48-338     48    338.0       2156.    
     MULTIPLE LAYERS AND PROPORTIONS :    1, 0.31       2, 0.69
  2364 2291-60-321     60    321.0       2133.    
     MULTIPLE LAYERS AND PROPORTIONS :    1, 0.31       2, 0.69
  2365 2291-71-13      71    13.00       2129.    
     MULTIPLE LAYERS AND PROPORTIONS :    1, 0.31       2, 0.69
  2366 2291-71-365     71    365.0       2130.    
     MULTIPLE LAYERS AND PROPORTIONS :    1, 0.31       2, 0.69
  2367 2304-7-311       7    311.0       2243.    
  2368 2304-12-38      12    38.00       2229.    
  2369 2304-17-3       17    3.000       2211.    
  2370 2304-22-24      22    24.00       2202.    
  2371 2304-27-11      27    11.00       2197.    
  2372 2237-7-79        7    79.00       2255.    
  2373 2237-12-38      12    38.00       2241.    
  2374 2237-17-24      17    24.00       2224.    
  2375 2237-22-24      22    24.00       2217.    
  2376 2237-27-16      27    16.00       2200.    
  2377 2218-56-34      56    34.00       2138.    
  2378 2218-66-59      66    59.00       2128.    
  2379 2218-71-54      71    54.00       2128.    
  2380 2218-71-365     71    365.0       2128.    
  2381 2212-26-349     26    349.0       2217.    
     MULTIPLE LAYERS AND PROPORTIONS :    1, 0.13       2, 0.87
  2382 2212-42-362     42    362.0       2184.    
     MULTIPLE LAYERS AND PROPORTIONS :    1, 0.13       2, 0.87
  2383 2212-61-20      61    20.00       2151.    
     MULTIPLE LAYERS AND PROPORTIONS :    1, 0.13       2, 0.87
  2384 2212-66-59      66    59.00       2145.    
     MULTIPLE LAYERS AND PROPORTIONS :    1, 0.13       2, 0.87
  2385 2212-71-54      71    54.00       2148.    
     MULTIPLE LAYERS AND PROPORTIONS :    1, 0.13       2, 0.87
  2386 2212-71-365     71    365.0       2148.    
     MULTIPLE LAYERS AND PROPORTIONS :    1, 0.13       2, 0.87
  2387 2213-56-34      56    34.00       2137.    
  2388 2213-66-59      66    59.00       2132.    
  2389 2213-71-54      71    54.00       2133.    
  2390 2213-71-365     71    365.0       2133.    
  2391 2177-42-363     42    363.0       2166.    
     MULTIPLE LAYERS AND PROPORTIONS :    1, 0.62       2, 0.38
  2392 2177-48-337     48    337.0       2168.    
  2393 2177-56-19      56    19.00       2145.    
  2394 2177-66-31      66    31.00       2130.    
  2395 2177-71-54      71    54.00       2106.    
  2396 2175-6-283       6    283.0       2262.    
  2397 2175-12-51      12    51.00       2240.    
  2398 2175-17-24      17    24.00       2228.    
  2399 2175-22-24      22    24.00       2220.    
  2400 2175-27-47      27    47.00       2202.    
  2401 2176-56-34      56    34.00       2142.    
  2402 2176-66-59      66    59.00       2132.    
  2403 2176-71-54      71    54.00       2133.    
  2404 2176-71-365     71    365.0       2133.    
  2405 2154-56-19      56    19.00       2146.    
     MULTIPLE LAYERS AND PROPORTIONS :    2, 0.39       3, 0.61
  2406 2154-61-20      61    20.00       2142.    
     MULTIPLE LAYERS AND PROPORTIONS :    2, 0.39       3, 0.61
  2407 2154-66-28      66    28.00       2135.    
     MULTIPLE LAYERS AND PROPORTIONS :    2, 0.39       3, 0.61
  2408 2154-71-54      71    54.00       2139.    
     MULTIPLE LAYERS AND PROPORTIONS :    2, 0.39       3, 0.61
  2409 2232-56-26      56    26.00       2147.    
  2410 2232-61-20      61    20.00       2140.    
  2411 2232-66-25      66    25.00       2134.    
  2412 2232-71-53      71    53.00       2137.    
  2413 2211-56-26      56    26.00       2149.    
  2414 2211-61-20      61    20.00       2141.    
  2415 2211-66-25      66    25.00       2137.    
  2416 2211-71-53      71    53.00       2141.    
  2417 2233-56-26      56    26.00       2143.    
  2418 2233-61-20      61    20.00       2139.    
  2419 2170-56-26      56    26.00       2146.    
  2420 2170-66-25      66    25.00       2135.    
  2421 2131-12-290     12    290.0       2246.    
  2422 2131-56-26      56    26.00       2155.    
  2423 2131-61-61      61    61.00       2150.    
  2424 2131-66-25      66    25.00       2143.    
  2425 2131-71-53      71    53.00       2148.    
  2426 2137-42-363     42    363.0       2174.    
     MULTIPLE LAYERS AND PROPORTIONS :    2, 0.99       3, 0.01
  2427 2137-48-338     48    338.0       2172.    
     MULTIPLE LAYERS AND PROPORTIONS :    2, 0.99       3, 0.01
  2428 2137-56-24      56    24.00       2171.    
     MULTIPLE LAYERS AND PROPORTIONS :    2, 0.99       3, 0.01
  2429 2137-66-19      66    19.00       2140.    
     MULTIPLE LAYERS AND PROPORTIONS :    2, 0.99       3, 0.01
  2430 2137-71-60      71    60.00       2138.    
     MULTIPLE LAYERS AND PROPORTIONS :    2, 0.99       3, 0.01
  2431 2289-11-38      11    38.00       2218.    
  2432 2289-17-33      17    33.00       2195.    
  2433 2289-22-24      22    24.00       2184.    
  2434 2289-32-32      32    32.00       2180.    
  2435 2241-10-33      10    33.00       2227.    
  2436 2241-17-33      17    33.00       2199.    
  2437 2241-22-24      22    24.00       2189.    
  2438 2241-42-363     42    363.0       2164.    
  2439 2241-48-334     48    334.0       2158.    
  2440 2241-56-26      56    26.00       2149.    
  2441 2241-61-21      61    21.00       2141.    
  2442 2236-1-357       1    357.0       2246.    
 Observation within a steady-state time step has been moved to the end of the time step.
  2443 2236-6-341       6    341.0       2242.    
  2444 2236-12-59      12    59.00       2219.    
  2445 2236-16-313     16    313.0       2206.    
  2446 2236-22-32      22    32.00       2193.    
  2447 2327-71-365     71    365.0       2124.    
  2448 2306-71-54      71    54.00       2114.    
  2449 2306-71-365     71    365.0       2108.    
  2450 2264-56-38      56    38.00       2145.    
  2451 2264-66-48      66    48.00       2132.    
  2452 2264-71-5       71    5.000       2111.    
  2453 2264-71-365     71    365.0       2111.    
  2454 2307-71-54      71    54.00       2110.    
  2455 2307-71-365     71    365.0       2102.    
  2456 2292-56-38      56    38.00       2153.    
  2457 2292-66-42      66    42.00       2134.    
  2458 2293-56-38      56    38.00       2152.    
  2459 2293-66-48      66    48.00       2131.    
  2460 2293-71-12      71    12.00       2097.    
  2461 2293-71-365     71    365.0       2111.    
  2462 2272-55-346     55    346.0       2143.    
  2463 2272-71-54      71    54.00       2109.    
  2464 2272-71-365     71    365.0       2100.    
  2465 2268-66-3       66    3.000       2122.    
  2466 2268-71-365     71    365.0       2107.    
  2467 2242-56-38      56    38.00       2144.    
  2468 2242-66-48      66    48.00       2122.    
  2469 2242-71-365     71    365.0       2100.    
  2470 2257-56-38      56    38.00       2149.    
  2471 2257-66-48      66    48.00       2135.    
  2472 2258-56-38      56    38.00       2152.    
  2473 2258-66-48      66    48.00       2138.    
  2474 2187-42-362     42    362.0       2156.    
  2475 2187-48-336     48    336.0       2152.    
  2476 2187-56-5       56    5.000       2143.    
  2477 2187-61-6       61    6.000       2137.    
  2478 2187-66-48      66    48.00       2121.    
  2479 2187-71-54      71    54.00       2107.    
  2480 2187-71-349     71    349.0       2100.    
  2481 2234-56-38      56    38.00       2152.    
  2482 2234-66-48      66    48.00       2126.    
  2483 2226-66-48      66    48.00       2127.    
  2484 2155-56-38      56    38.00       2153.    
  2485 2155-66-48      66    48.00       2127.    
  2486 2333-56-38      56    38.00       2142.    
  2487 2333-66-48      66    48.00       2117.    
  2488 2308-56-38      56    38.00       2143.    
  2489 2308-66-48      66    48.00       2123.    
  2490 2308-71-21      71    21.00       2103.    
  2491 2308-71-365     71    365.0       2104.    
  2492 2329-56-38      56    38.00       2145.    
  2493 2329-66-48      66    48.00       2123.    
  2494 2329-71-12      71    12.00       2098.    
  2495 2329-71-365     71    365.0       2104.    
  2496 2319-66-48      66    48.00       2133.    
  2497 2320-56-38      56    38.00       2146.    
  2498 2320-66-48      66    48.00       2131.    
  2499 2320-71-12      71    12.00       2108.    
  2500 2320-71-365     71    365.0       2112.    
  2501 2299-55-343     55    343.0       2141.    
  2502 2299-71-54      71    54.00       2096.    
  2503 2299-71-365     71    365.0       2096.    
  2504 2274-56-38      56    38.00       2145.    
  2505 2274-71-54      71    54.00       2106.    
  2506 2274-71-365     71    365.0       2098.    
  2507 2294-56-38      56    38.00       2148.    
  2508 2294-66-48      66    48.00       2126.    
  2509 2294-71-12      71    12.00       2100.    
  2510 2294-71-365     71    365.0       2105.    
  2511 2273-56-38      56    38.00       2146.    
  2512 2273-66-48      66    48.00       2124.    
  2513 2273-71-21      71    21.00       2104.    
  2514 2273-71-365     71    365.0       2103.    
  2515 2284-66-42      66    42.00       2108.    
  2516 2167-1-365       1    365.0       2231.    
 Observation within a steady-state time step has been moved to the end of the time step.
  2517 2167-7-310       7    310.0       2218.    
  2518 2167-11-38      11    38.00       2206.    
  2519 2183-12-50      12    50.00       2200.    
  2520 2183-17-34      17    34.00       2181.    
  2521 2183-22-23      22    23.00       2171.    
  2522 2183-32-47      32    47.00       2167.    
  2523 2183-38-32      38    32.00       2162.    
  2524 2168-42-364     42    364.0       2155.    
  2525 2243-42-364     42    364.0       2133.    
     MULTIPLE LAYERS AND PROPORTIONS :    2, 0.93       3, 0.07
  2526 2243-56-25      56    25.00       2126.    
     MULTIPLE LAYERS AND PROPORTIONS :    2, 0.93       3, 0.07
  2527 2243-66-19      66    19.00       2074.    
     MULTIPLE LAYERS AND PROPORTIONS :    2, 0.93       3, 0.07
  2528 2108-66-48      66    48.00       2141.    
  2529 2109-12-50      12    50.00       2233.    
  2530 2109-17-34      17    34.00       2214.    
  2531 2109-22-23      22    23.00       2204.    
  2532 2109-42-362     42    362.0       2172.    
  2533 2109-48-363     48    363.0       2170.    
  2534 2109-55-346     55    346.0       2156.    
  2535 2109-60-323     60    323.0       2151.    
  2536 2109-66-48      66    48.00       2144.    
  2537 2109-71-12      71    12.00       2126.    
  2538 2109-71-349     71    349.0       2126.    
  2539 1991-7-25        7    25.00       2262.    
     MULTIPLE LAYERS AND PROPORTIONS :    1, 0.40       2, 0.60
  2540 1991-12-50      12    50.00       2243.    
     MULTIPLE LAYERS AND PROPORTIONS :    1, 0.40       2, 0.60
  2541 1991-17-34      17    34.00       2224.    
     MULTIPLE LAYERS AND PROPORTIONS :    1, 0.40       2, 0.60
  2542 1991-22-23      22    23.00       2214.    
     MULTIPLE LAYERS AND PROPORTIONS :    1, 0.40       2, 0.60
  2543 1991-27-11      27    11.00       2207.    
     MULTIPLE LAYERS AND PROPORTIONS :    1, 0.40       2, 0.60
  2544 1991-38-32      38    32.00       2199.    
     MULTIPLE LAYERS AND PROPORTIONS :    1, 0.40       2, 0.60
  2545 1991-42-365     42    365.0       2178.    
     MULTIPLE LAYERS AND PROPORTIONS :    1, 0.40       2, 0.60
  2546 1991-48-337     48    337.0       2181.    
  2547 1991-56-25      56    25.00       2168.    
  2548 1991-60-323     60    323.0       2162.    
  2549 2038-12-51      12    51.00       2244.    
  2550 2038-17-24      17    24.00       2232.    
  2551 2038-22-24      22    24.00       2223.    
  2552 2038-56-19      56    19.00       2217.    
  2553 2122-61-21      61    21.00       2149.    
     MULTIPLE LAYERS AND PROPORTIONS :    2, 0.98       3, 0.02
  2554 2075-56-38      56    38.00       2165.    
  2555 2039-61-21      61    21.00       2161.    
     MULTIPLE LAYERS AND PROPORTIONS :    2, 0.92       3, 0.08
  2556 2021-61-20      61    20.00       2161.    
     MULTIPLE LAYERS AND PROPORTIONS :    1, 0.74       2, 0.26
  2557 2020-61-21      61    21.00       2164.    
     MULTIPLE LAYERS AND PROPORTIONS :    1, 0.42       2, 0.58
  2558 1987-66-48      66    48.00       2158.    
  2559 1958-42-362     42    362.0       2187.    
     MULTIPLE LAYERS AND PROPORTIONS :    1, 0.30       2, 0.70
  2560 1958-48-362     48    362.0       2189.    
     MULTIPLE LAYERS AND PROPORTIONS :    1, 0.30       2, 0.70
  2561 1958-55-346     55    346.0       2175.    
     MULTIPLE LAYERS AND PROPORTIONS :    1, 0.30       2, 0.70
  2562 1958-61-20      61    20.00       2168.    
     MULTIPLE LAYERS AND PROPORTIONS :    1, 0.30       2, 0.70
  2563 1958-66-1       66   1.0000       2158.    
     MULTIPLE LAYERS AND PROPORTIONS :    1, 0.30       2, 0.70
  2564 1958-71-47      71    47.00       2154.    
     MULTIPLE LAYERS AND PROPORTIONS :    1, 0.30       2, 0.70
  2565 1958-71-349     71    349.0       2153.    
     MULTIPLE LAYERS AND PROPORTIONS :    1, 0.30       2, 0.70
  2566 1952-12-301     12    301.0       2256.    
     MULTIPLE LAYERS AND PROPORTIONS :    1, 0.31       2, 0.69
  2567 1952-17-4       17    4.000       2237.    
     MULTIPLE LAYERS AND PROPORTIONS :    1, 0.31       2, 0.69
  2568 1952-22-32      22    32.00       2234.    
     MULTIPLE LAYERS AND PROPORTIONS :    1, 0.31       2, 0.69
  2569 1952-27-11      27    11.00       2225.    
     MULTIPLE LAYERS AND PROPORTIONS :    1, 0.31       2, 0.69
  2570 2107-56-26      56    26.00       2157.    
     MULTIPLE LAYERS AND PROPORTIONS :    1, 0.15       2, 0.65       3, 0.20
  2571 2107-61-20      61    20.00       2145.    
     MULTIPLE LAYERS AND PROPORTIONS :    1, 0.15       2, 0.65       3, 0.20
  2572 2107-71-53      71    53.00       2148.    
     MULTIPLE LAYERS AND PROPORTIONS :    1, 0.15       2, 0.65       3, 0.20
  2573 2079-7-152       7    152.0       2264.    
  2574 2079-61-20      61    20.00       2145.    
  2575 2057-42-362     42    362.0       2188.    
  2576 2057-48-362     48    362.0       2181.    
  2577 2057-55-346     55    346.0       2150.    
  2578 2057-61-20      61    20.00       2156.    
  2579 2057-65-354     65    354.0       2147.    
  2580 2057-71-56      71    56.00       2152.    
  2581 2057-71-365     71    365.0       2152.    
  2582 2161-6-283       6    283.0       2266.    
  2583 2161-10-283     10    283.0       2246.    
  2584 2161-17-24      17    24.00       2232.    
  2585 2161-22-24      22    24.00       2224.    
  2586 2161-27-47      27    47.00       2212.    
  2587 2161-32-48      32    48.00       2199.    
  2588 2161-38-32      38    32.00       2192.    
  2589 2094-61-20      61    20.00       2148.    
     MULTIPLE LAYERS AND PROPORTIONS :    1, 0.23       2, 0.35       3, 0.42
  2590 2094-66-28      66    28.00       2138.    
     MULTIPLE LAYERS AND PROPORTIONS :    1, 0.23       2, 0.35       3, 0.42
  2591 2094-71-54      71    54.00       2143.    
     MULTIPLE LAYERS AND PROPORTIONS :    1, 0.23       2, 0.35       3, 0.42
  2592 2059-7-311       7    311.0       2263.    
     MULTIPLE LAYERS AND PROPORTIONS :    1, 0.99       2, 0.01
  2593 2059-12-51      12    51.00       2255.    
     MULTIPLE LAYERS AND PROPORTIONS :    1, 0.99       2, 0.01
  2594 2059-17-4       17    4.000       2229.    
     MULTIPLE LAYERS AND PROPORTIONS :    1, 0.99       2, 0.01
  2595 2059-22-24      22    24.00       2220.    
     MULTIPLE LAYERS AND PROPORTIONS :    1, 0.99       2, 0.01
  2596 2059-27-47      27    47.00       2219.    
     MULTIPLE LAYERS AND PROPORTIONS :    1, 0.99       2, 0.01
  2597 2059-61-21      61    21.00       2174.    
     MULTIPLE LAYERS AND PROPORTIONS :    1, 0.99       2, 0.01
  2598 1989-42-365     42    365.0       2190.    
  2599 1989-56-17      56    17.00       2179.    
  2600 1989-61-20      61    20.00       2170.    
  2601 1968-42-365     42    365.0       2192.    
     MULTIPLE LAYERS AND PROPORTIONS :    2, 0.36       3, 0.64
  2602 1968-56-17      56    17.00       2180.    
     MULTIPLE LAYERS AND PROPORTIONS :    2, 0.36       3, 0.64
  2603 1968-61-20      61    20.00       2173.    
     MULTIPLE LAYERS AND PROPORTIONS :    2, 0.36       3, 0.64
  2604 1937-56-17      56    17.00       2189.    
  2605 1937-61-20      61    20.00       2176.    
  2606 1937-66-27      66    27.00       2171.    
  2607 2007-61-21      61    21.00       2165.    
  2608 2007-66-25      66    25.00       2159.    
  2609 1981-61-21      61    21.00       2168.    
     MULTIPLE LAYERS AND PROPORTIONS :    1, 0.21       2, 0.79
  2610 2037-66-32      66    32.00       2145.    
  2611 2106-26-349     26    349.0       2227.    
     MULTIPLE LAYERS AND PROPORTIONS :    2, 0.43       3, 0.57
  2612 2106-32-32      32    32.00       2213.    
     MULTIPLE LAYERS AND PROPORTIONS :    2, 0.43       3, 0.57
  2613 2106-42-362     42    362.0       2192.    
     MULTIPLE LAYERS AND PROPORTIONS :    2, 0.43       3, 0.57
  2614 2106-48-362     48    362.0       2179.    
     MULTIPLE LAYERS AND PROPORTIONS :    2, 0.43       3, 0.57
  2615 2106-56-34      56    34.00       2160.    
     MULTIPLE LAYERS AND PROPORTIONS :    2, 0.43       3, 0.57
  2616 2106-61-41      61    41.00       2151.    
     MULTIPLE LAYERS AND PROPORTIONS :    2, 0.43       3, 0.57
  2617 2106-66-54      66    54.00       2145.    
     MULTIPLE LAYERS AND PROPORTIONS :    2, 0.43       3, 0.57
  2618 2106-71-41      71    41.00       2144.    
     MULTIPLE LAYERS AND PROPORTIONS :    2, 0.43       3, 0.57
  2619 2106-71-365     71    365.0       2148.    
     MULTIPLE LAYERS AND PROPORTIONS :    2, 0.43       3, 0.57
  2620 1951-12-51      12    51.00       2290.    
     MULTIPLE LAYERS AND PROPORTIONS :    1, 0.81       2, 0.19
  2621 1951-17-39      17    39.00       2273.    
     MULTIPLE LAYERS AND PROPORTIONS :    1, 0.81       2, 0.19
  2622 1951-22-28      22    28.00       2266.    
     MULTIPLE LAYERS AND PROPORTIONS :    1, 0.81       2, 0.19
  2623 1951-38-354     38    354.0       2221.    
     MULTIPLE LAYERS AND PROPORTIONS :    1, 0.81       2, 0.19
  2624 1951-42-363     42    363.0       2215.    
     MULTIPLE LAYERS AND PROPORTIONS :    1, 0.81       2, 0.19
  2625 1951-48-362     48    362.0       2201.    
     MULTIPLE LAYERS AND PROPORTIONS :    1, 0.81       2, 0.19
  2626 1951-55-346     55    346.0       2181.    
     MULTIPLE LAYERS AND PROPORTIONS :    1, 0.81       2, 0.19
  2627 1951-61-41      61    41.00       2171.    
     MULTIPLE LAYERS AND PROPORTIONS :    1, 0.81       2, 0.19
  2628 1951-66-49      66    49.00       2160.    
     MULTIPLE LAYERS AND PROPORTIONS :    1, 0.81       2, 0.19
  2629 1951-71-56      71    56.00       2163.    
     MULTIPLE LAYERS AND PROPORTIONS :    1, 0.81       2, 0.19
  2630 1951-71-365     71    365.0       2165.    
     MULTIPLE LAYERS AND PROPORTIONS :    1, 0.81       2, 0.19
  2631 2494-1-365       1    365.0       2306.    
 Observation within a steady-state time step has been moved to the end of the time step.
  2632 2489-22-66      22    66.00       2270.    
     MULTIPLE LAYERS AND PROPORTIONS :    1, 0.61       2, 0.39
  2633 2489-27-87      27    87.00       2267.    
     MULTIPLE LAYERS AND PROPORTIONS :    1, 0.61       2, 0.39
  2634 2489-32-1       32   1.0000       2263.    
     MULTIPLE LAYERS AND PROPORTIONS :    1, 0.61       2, 0.39
  2635 2489-33-60      33    60.00       2258.    
     MULTIPLE LAYERS AND PROPORTIONS :    1, 0.61       2, 0.39
  2636 2489-42-363     42    363.0       2252.    
  2637 2489-55-349     55    349.0       2237.    
  2638 2429-61-61      61    61.00       2229.    
  2639 2429-66-25      66    25.00       2207.    
  2640 2429-71-53      71    53.00       2208.    
  2641 2457-22-65      22    65.00       2248.    
     MULTIPLE LAYERS AND PROPORTIONS :    1, 0.51       2, 0.49
  2642 2457-26-341     26    341.0       2237.    
     MULTIPLE LAYERS AND PROPORTIONS :    1, 0.51       2, 0.49
  2643 2457-31-335     31    335.0       2239.    
     MULTIPLE LAYERS AND PROPORTIONS :    1, 0.51       2, 0.49
  2644 2457-33-60      33    60.00       2232.    
     MULTIPLE LAYERS AND PROPORTIONS :    1, 0.51       2, 0.49
  2645 2457-42-363     42    363.0       2227.    
     MULTIPLE LAYERS AND PROPORTIONS :    1, 0.51       2, 0.49
  2646 2457-48-337     48    337.0       2219.    
     MULTIPLE LAYERS AND PROPORTIONS :    1, 0.51       2, 0.49
  2647 2457-56-18      56    18.00       2213.    
     MULTIPLE LAYERS AND PROPORTIONS :    1, 0.51       2, 0.49
  2648 2457-61-47      61    47.00       2207.    
     MULTIPLE LAYERS AND PROPORTIONS :    1, 0.51       2, 0.49
  2649 2457-66-32      66    32.00       2182.    
     MULTIPLE LAYERS AND PROPORTIONS :    1, 0.51       2, 0.49
  2650 2457-71-14      71    14.00       2184.    
     MULTIPLE LAYERS AND PROPORTIONS :    1, 0.51       2, 0.49
  2651 2457-71-42      71    42.00       2182.    
     MULTIPLE LAYERS AND PROPORTIONS :    1, 0.51       2, 0.49
  2652 2457-71-365     71    365.0       2191.    
     MULTIPLE LAYERS AND PROPORTIONS :    1, 0.51       2, 0.49
  2653 2457-71-365     71    365.0       2188.    
     MULTIPLE LAYERS AND PROPORTIONS :    1, 0.51       2, 0.49
  2654 2426-61-61      61    61.00       2226.    
  2655 2426-66-25      66    25.00       2191.    
  2656 2378-22-66      22    66.00       2269.    
  2657 2378-26-341     26    341.0       2254.    
  2658 2378-31-335     31    335.0       2251.    
  2659 2377-7-1         7   1.0000       2301.    
  2660 2377-12-92      12    92.00       2285.    
  2661 2382-1-365       1    365.0       2301.    
 Observation within a steady-state time step has been moved to the end of the time step.
  2662 2369-16-364     16    364.0       2258.    
  2663 2397-10-255     10    255.0       2291.    
  2664 2381-66-32      66    32.00       2184.    
  2665 2368-56-25      56    25.00       2246.    
  2666 2368-61-48      61    48.00       2216.    
  2667 2364-56-25      56    25.00       2246.    
     MULTIPLE LAYERS AND PROPORTIONS :    1, 0.24       2, 0.76
  2668 2364-61-48      61    48.00       2218.    
     MULTIPLE LAYERS AND PROPORTIONS :    1, 0.24       2, 0.76
  2669 2364-66-24      66    24.00       2182.    
     MULTIPLE LAYERS AND PROPORTIONS :    1, 0.24       2, 0.76
  2670 2364-71-14      71    14.00       2189.    
     MULTIPLE LAYERS AND PROPORTIONS :    1, 0.24       2, 0.76
  2671 2364-71-365     71    365.0       2205.    
     MULTIPLE LAYERS AND PROPORTIONS :    1, 0.24       2, 0.76
  2672 2361-56-25      56    25.00       2233.    
  2673 2361-61-48      61    48.00       2213.    
  2674 2361-66-24      66    24.00       2179.    
  2675 2361-71-14      71    14.00       2186.    
  2676 2361-71-365     71    365.0       2200.    
  2677 2349-42-364     42    364.0       2247.    
     MULTIPLE LAYERS AND PROPORTIONS :    1, 0.35       2, 0.65
  2678 2349-48-341     48    341.0       2231.    
     MULTIPLE LAYERS AND PROPORTIONS :    1, 0.35       2, 0.65
  2679 2349-56-18      56    18.00       2229.    
     MULTIPLE LAYERS AND PROPORTIONS :    1, 0.35       2, 0.65
  2680 2349-61-48      61    48.00       2207.    
     MULTIPLE LAYERS AND PROPORTIONS :    1, 0.35       2, 0.65
  2681 2349-66-24      66    24.00       2174.    
     MULTIPLE LAYERS AND PROPORTIONS :    1, 0.35       2, 0.65
  2682 2349-71-14      71    14.00       2184.    
     MULTIPLE LAYERS AND PROPORTIONS :    1, 0.35       2, 0.65
  2683 2349-71-365     71    365.0       2198.    
     MULTIPLE LAYERS AND PROPORTIONS :    1, 0.35       2, 0.65
  2684 2422-32-60      32    60.00       2288.    
  2685 2422-33-60      33    60.00       2281.    
  2686 2422-42-363     42    363.0       2283.    
  2687 2422-48-357     48    357.0       2271.    
  2688 2422-55-349     55    349.0       2262.    
  2689 2422-61-3       61    3.000       2255.    
  2690 2406-22-65      22    65.00       2281.    
  2691 2396-16-298     16    298.0       2300.    
  2692 2396-22-32      22    32.00       2300.    
  2693 2396-27-10      27   10.000       2326.    
  2694 2401-22-65      22    65.00       2282.    
  2695 2376-26-341     26    341.0       2266.    
     MULTIPLE LAYERS AND PROPORTIONS :    1, 0.53       2, 0.47
  2696 2365-22-65      22    65.00       2290.    
     MULTIPLE LAYERS AND PROPORTIONS :    1, 0.84       2, 0.16
  2697 2365-27-4       27    4.000       2327.    
     MULTIPLE LAYERS AND PROPORTIONS :    1, 0.84       2, 0.16
  2698 2335-56-18      56    18.00       2237.    
     MULTIPLE LAYERS AND PROPORTIONS :    1, 0.48       2, 0.52
  2699 2335-60-322     60    322.0       2219.    
     MULTIPLE LAYERS AND PROPORTIONS :    1, 0.48       2, 0.52
  2700 2335-65-326     65    326.0       2181.    
     MULTIPLE LAYERS AND PROPORTIONS :    1, 0.48       2, 0.52
  2701 2335-71-365     71    365.0       2205.    
     MULTIPLE LAYERS AND PROPORTIONS :    1, 0.48       2, 0.52
  2702 2348-56-18      56    18.00       2235.    
     MULTIPLE LAYERS AND PROPORTIONS :    1, 0.34       2, 0.38       3, 0.28
  2703 2348-61-48      61    48.00       2211.    
     MULTIPLE LAYERS AND PROPORTIONS :    1, 0.34       2, 0.38       3, 0.28
  2704 2348-66-24      66    24.00       2178.    
     MULTIPLE LAYERS AND PROPORTIONS :    1, 0.34       2, 0.38       3, 0.28
  2705 2348-71-365     71    365.0       2205.    
     MULTIPLE LAYERS AND PROPORTIONS :    1, 0.34       2, 0.38       3, 0.28
  2706 2347-42-364     42    364.0       2259.    
  2707 2347-48-337     48    337.0       2252.    
  2708 2347-56-18      56    18.00       2242.    
  2709 2347-61-48      61    48.00       2222.    
  2710 2347-66-24      66    24.00       2187.    
  2711 2380-61-48      61    48.00       2240.    
  2712 2392-61-48      61    48.00       2242.    
  2713 2391-61-48      61    48.00       2240.    
  2714 2391-66-25      66    25.00       2195.    
  2715 2374-66-40      66    40.00       2191.    
  2716 2374-71-365     71    365.0       2221.    
  2717 2354-16-361     16    361.0       2331.    
  2718 2353-48-274     48    274.0       2274.    
  2719 2352-22-65      22    65.00       2336.    
  2720 2351-66-45      66    45.00       2366.    
  2721 2351-71-42      71    42.00       2367.    
  2722 2351-71-365     71    365.0       2368.    
  2723 2341-55-348     55    348.0       2402.    
  2724 2341-66-45      66    45.00       2396.    
  2725 2341-71-42      71    42.00       2399.    
  2726 2341-71-365     71    365.0       2403.    
  2727 2350-42-355     42    355.0       2373.    
  2728 2350-48-355     48    355.0       2372.    
  2729 2350-55-348     55    348.0       2373.    
  2730 2350-61-3       61    3.000       2371.    
  2731 2350-71-42      71    42.00       2367.    
  2732 2350-71-365     71    365.0       2368.    
  2733 2358-48-306     48    306.0       2396.    
  2734 2215-1-357       1    357.0       2435.    
 Observation within a steady-state time step has been moved to the end of the time step.
  2735 2215-6-295       6    295.0       2429.    
  2736 2215-10-349     10    349.0       2430.    
  2737 2215-22-68      22    68.00       2427.    
  2738 2215-31-335     31    335.0       2427.    
  2739 2215-33-1       33   1.0000       2433.    
  2740 2215-39-60      39    60.00       2425.    
  2741 2215-42-356     42    356.0       2425.    
  2742 2215-48-336     48    336.0       2428.    
  2743 2164-48-337     48    337.0       2411.    
  2744 2164-56-24      56    24.00       2419.    
  2745 2164-61-54      61    54.00       2410.    
  2746 2164-66-24      66    24.00       2417.    
  2747 2164-71-41      71    41.00       2416.    
  2748 2135-48-337     48    337.0       2421.    
     MULTIPLE LAYERS AND PROPORTIONS :    1, 0.74       2, 0.26
  2749 2135-56-24      56    24.00       2428.    
     MULTIPLE LAYERS AND PROPORTIONS :    1, 0.74       2, 0.26
  2750 2135-61-55      61    55.00       2415.    
     MULTIPLE LAYERS AND PROPORTIONS :    1, 0.74       2, 0.26
  2751 2135-66-26      66    26.00       2427.    
     MULTIPLE LAYERS AND PROPORTIONS :    1, 0.74       2, 0.26
  2752 2135-71-42      71    42.00       2427.    
     MULTIPLE LAYERS AND PROPORTIONS :    1, 0.74       2, 0.26
  2753 2238-56-23      56    23.00       2443.    
  2754 2334-22-67      22    67.00       2386.    
  2755 2334-26-349     26    349.0       2386.    
  2756 2334-33-60      33    60.00       2381.    
  2757 2334-42-363     42    363.0       2387.    
  2758 2334-48-274     48    274.0       2394.    
  2759 2334-55-321     55    321.0       2395.    
  2760 2334-60-319     60    319.0       2396.    
  2761 2334-65-326     65    326.0       2388.    
  2762 2334-71-14      71    14.00       2393.    
  2763 2334-71-42      71    42.00       2391.    
  2764 2334-71-365     71    365.0       2396.    
  2765 2334-71-365     71    365.0       2387.    
  2766 2225-55-321     55    321.0       2384.    
  2767 2223-55-279     55    279.0       2360.    
  2768 2223-61-47      61    47.00       2357.    
  2769 2223-66-32      66    32.00       2375.    
  2770 2223-71-14      71    14.00       2337.    
  2771 2223-71-365     71    365.0       2364.    
  2772 2224-55-321     55    321.0       2382.    
  2773 2224-61-47      61    47.00       2358.    
  2774 2224-66-32      66    32.00       2371.    
  2775 2142-48-274     48    274.0       2338.    
  2776 2150-48-306     48    306.0       2340.    
  2777 2150-55-321     55    321.0       2336.    
  2778 2141-48-274     48    274.0       2337.    
  2779 2141-55-321     55    321.0       2328.    
  2780 2141-61-47      61    47.00       2327.    
  2781 2141-71-14      71    14.00       2313.    
  2782 2141-71-365     71    365.0       2336.    
  2783 2140-48-274     48    274.0       2358.    
  2784 2140-55-321     55    321.0       2348.    
  2785 2140-66-18      66    18.00       2338.    
     MULTIPLE LAYERS AND PROPORTIONS :    1, 0.62       2, 0.38
  2786 2209-27-11      27    11.00       2417.    
  2787 2209-31-351     31    351.0       2416.    
  2788 2209-37-343     37    343.0       2408.    
  2789 2208-56-23      56    23.00       2417.    
  2790 2208-60-321     60    321.0       2410.    
  2791 2208-65-299     65    299.0       2408.    
  2792 2208-71-32      71    32.00       2408.    
  2793 2208-71-365     71    365.0       2407.    
  2794 2206-48-274     48    274.0       2414.    
     MULTIPLE LAYERS AND PROPORTIONS :    1, 0.74       2, 0.26
  2795 2206-55-321     55    321.0       2407.    
     MULTIPLE LAYERS AND PROPORTIONS :    1, 0.74       2, 0.26
  2796 2206-61-47      61    47.00       2405.    
     MULTIPLE LAYERS AND PROPORTIONS :    1, 0.74       2, 0.26
  2797 2206-71-14      71    14.00       2394.    
     MULTIPLE LAYERS AND PROPORTIONS :    1, 0.74       2, 0.26
  2798 2206-71-365     71    365.0       2399.    
     MULTIPLE LAYERS AND PROPORTIONS :    1, 0.74       2, 0.26
  2799 2182-55-321     55    321.0       2385.    
  2800 2174-55-279     55    279.0       2360.    
  2801 2174-60-319     60    319.0       2380.    
  2802 2174-65-326     65    326.0       2355.    
  2803 2174-71-14      71    14.00       2338.    
  2804 2174-71-365     71    365.0       2373.    
  2805 2181-55-321     55    321.0       2368.    
  2806 2181-61-47      61    47.00       2366.    
  2807 2139-1-357       1    357.0       2407.    
 Observation within a steady-state time step has been moved to the end of the time step.
  2808 2138-48-274     48    274.0       2392.    
  2809 2138-55-321     55    321.0       2390.    
  2810 2138-61-47      61    47.00       2391.    
  2811 2138-66-24      66    24.00       2397.    
  2812 2138-71-14      71    14.00       2366.    
  2813 2138-71-365     71    365.0       2393.    
  2814 2253-16-361     16    361.0       2366.    
  2815 2251-48-274     48    274.0       2395.    
     MULTIPLE LAYERS AND PROPORTIONS :    1, 0.95       2, 0.05
  2816 2251-55-321     55    321.0       2391.    
     MULTIPLE LAYERS AND PROPORTIONS :    1, 0.95       2, 0.05
  2817 2314-12-116     12    116.0       2371.    
     MULTIPLE LAYERS AND PROPORTIONS :    1, 0.80       2, 0.20
  2818 2314-22-67      22    67.00       2372.    
  2819 2314-33-60      33    60.00       2367.    
  2820 2290-7-322       7    322.0       2357.    
  2821 2290-10-32      10    32.00       2363.    
  2822 2290-42-364     42    364.0       2348.    
  2823 2290-48-355     48    355.0       2356.    
  2824 2290-55-348     55    348.0       2378.    
  2825 2290-65-354     65    354.0       2361.    
  2826 2290-71-42      71    42.00       2379.    
  2827 2290-71-365     71    365.0       2357.    
  2828 2286-42-357     42    357.0       2345.    
     MULTIPLE LAYERS AND PROPORTIONS :    1, 0.50       2, 0.50
  2829 2286-48-355     48    355.0       2344.    
     MULTIPLE LAYERS AND PROPORTIONS :    1, 0.50       2, 0.50
  2830 2286-61-3       61    3.000       2351.    
     MULTIPLE LAYERS AND PROPORTIONS :    1, 0.50       2, 0.50
  2831 2286-66-45      66    45.00       2371.    
     MULTIPLE LAYERS AND PROPORTIONS :    1, 0.50       2, 0.50
  2832 2287-42-357     42    357.0       2358.    
  2833 2287-61-3       61    3.000       2363.    
  2834 2287-71-42      71    42.00       2383.    
  2835 2287-71-365     71    365.0       2360.    
  2836 2278-22-67      22    67.00       2363.    
     MULTIPLE LAYERS AND PROPORTIONS :    1, 0.28       2, 0.72
  2837 2278-26-362     26    362.0       2379.    
     MULTIPLE LAYERS AND PROPORTIONS :    1, 0.28       2, 0.72
  2838 2278-31-335     31    335.0       2357.    
     MULTIPLE LAYERS AND PROPORTIONS :    1, 0.28       2, 0.72
  2839 2278-33-60      33    60.00       2364.    
     MULTIPLE LAYERS AND PROPORTIONS :    1, 0.28       2, 0.72
  2840 2278-48-274     48    274.0       2365.    
     MULTIPLE LAYERS AND PROPORTIONS :    1, 0.28       2, 0.72
  2841 2129-66-40      66    40.00       2194.    
  2842 2129-71-42      71    42.00       2229.    
  2843 2129-71-365     71    365.0       2235.    
  2844 2146-7-1         7   1.0000       2375.    
  2845 2146-11-86      11    86.00       2363.    
  2846 2146-22-67      22    67.00       2347.    
  2847 2146-37-263     37    263.0       2287.    
  2848 2147-42-363     42    363.0       2279.    
  2849 2147-48-362     48    362.0       2265.    
  2850 2147-55-349     55    349.0       2260.    
  2851 2145-2-132       2    132.0       2385.    
  2852 2144-2-132       2    132.0       2390.    
  2853 2126-48-274     48    274.0       2297.    
  2854 2126-55-321     55    321.0       2282.    
  2855 2126-61-47      61    47.00       2279.    
  2856 2126-71-14      71    14.00       2274.    
  2857 2126-71-365     71    365.0       2290.    
  2858 2315-10-262     10    262.0       2351.    
  2859 2288-10-262     10    262.0       2361.    
  2860 2248-56-23      56    23.00       2268.    
     MULTIPLE LAYERS AND PROPORTIONS :    1, 0.52       2, 0.48
  2861 2239-16-361     16    361.0       2347.    
  2862 2239-22-32      22    32.00       2337.    
  2863 2239-27-10      27   10.000       2328.    
  2864 2239-56-23      56    23.00       2274.    
  2865 2267-56-25      56    25.00       2257.    
  2866 2255-22-65      22    65.00       2326.    
  2867 2255-32-60      32    60.00       2302.    
  2868 2255-38-60      38    60.00       2294.    
  2869 2240-56-25      56    25.00       2269.    
  2870 2240-66-32      66    32.00       2195.    
  2871 2240-71-54      71    54.00       2245.    
  2872 2114-61-49      61    49.00       2224.    
  2873 2114-66-40      66    40.00       2195.    
  2874 2114-71-42      71    42.00       2225.    
  2875 2114-71-365     71    365.0       2238.    
  2876 2191-56-23      56    23.00       2242.    
  2877 2191-61-61      61    61.00       2224.    
  2878 2191-66-25      66    25.00       2194.    
  2879 2210-48-334     48    334.0       2283.    
  2880 2210-55-321     55    321.0       2270.    
  2881 2210-61-47      61    47.00       2259.    
  2882 2210-66-24      66    24.00       2229.    
  2883 2210-71-42      71    42.00       2225.    
  2884 2210-71-365     71    365.0       2238.    
  2885 2162-48-274     48    274.0       2254.    
  2886 2162-65-354     65    354.0       2184.    
  2887 2162-71-42      71    42.00       2213.    
  2888 2162-71-365     71    365.0       2224.    
  2889 2298-61-48      61    48.00       2210.    
     MULTIPLE LAYERS AND PROPORTIONS :    1, 0.14       2, 0.54       3, 0.32
  2890 2298-66-24      66    24.00       2176.    
     MULTIPLE LAYERS AND PROPORTIONS :    1, 0.14       2, 0.54       3, 0.32
  2891 2298-71-14      71    14.00       2191.    
     MULTIPLE LAYERS AND PROPORTIONS :    1, 0.14       2, 0.54       3, 0.32
  2892 2298-71-365     71    365.0       2205.    
     MULTIPLE LAYERS AND PROPORTIONS :    1, 0.14       2, 0.54       3, 0.32
  2893 2250-22-69      22    69.00       2301.    
  2894 2250-27-61      27    61.00       2307.    
  2895 2227-42-363     42    363.0       2240.    
     MULTIPLE LAYERS AND PROPORTIONS :    1, 0.53       2, 0.27       3, 0.20
  2896 2227-48-365     48    365.0       2217.    
     MULTIPLE LAYERS AND PROPORTIONS :    1, 0.53       2, 0.27       3, 0.20
  2897 2227-55-349     55    349.0       2199.    
     MULTIPLE LAYERS AND PROPORTIONS :    1, 0.53       2, 0.27       3, 0.20
  2898 2227-61-54      61    54.00       2174.    
     MULTIPLE LAYERS AND PROPORTIONS :    1, 0.53       2, 0.27       3, 0.20
  2899 2227-66-45      66    45.00       2151.    
     MULTIPLE LAYERS AND PROPORTIONS :    1, 0.53       2, 0.27       3, 0.20
  2900 2227-71-49      71    49.00       2170.    
     MULTIPLE LAYERS AND PROPORTIONS :    1, 0.53       2, 0.27       3, 0.20
  2901 2227-71-365     71    365.0       2178.    
     MULTIPLE LAYERS AND PROPORTIONS :    1, 0.53       2, 0.28       3, 0.19
  2902 2152-22-68      22    68.00       2316.    
  2903 2263-10-144     10    144.0       2292.    
  2904 2276-22-61      22    61.00       2265.    
     MULTIPLE LAYERS AND PROPORTIONS :    1, 0.88       2, 0.12
  2905 2276-26-301     26    301.0       2254.    
     MULTIPLE LAYERS AND PROPORTIONS :    1, 0.88       2, 0.12
  2906 2276-48-362     48    362.0       2208.    
     MULTIPLE LAYERS AND PROPORTIONS :    1, 0.88       2, 0.12
  2907 2276-55-349     55    349.0       2193.    
     MULTIPLE LAYERS AND PROPORTIONS :    1, 0.88       2, 0.12
  2908 2276-61-33      61    33.00       2176.    
     MULTIPLE LAYERS AND PROPORTIONS :    1, 0.88       2, 0.12
  2909 2276-66-32      66    32.00       2153.    
     MULTIPLE LAYERS AND PROPORTIONS :    1, 0.88       2, 0.12
  2910 2276-71-14      71    14.00       2154.    
     MULTIPLE LAYERS AND PROPORTIONS :    1, 0.88       2, 0.12
  2911 2276-71-41      71    41.00       2163.    
     MULTIPLE LAYERS AND PROPORTIONS :    1, 0.88       2, 0.12
  2912 2276-71-365     71    365.0       2168.    
     MULTIPLE LAYERS AND PROPORTIONS :    1, 0.88       2, 0.12
  2913 2276-71-365     71    365.0       2168.    
     MULTIPLE LAYERS AND PROPORTIONS :    1, 0.88       2, 0.12
  2914 2229-61-33      61    33.00       2163.    
  2915 2229-66-32      66    32.00       2144.    
  2916 2229-71-14      71    14.00       2160.    
  2917 2229-71-41      71    41.00       2160.    
  2918 2229-71-365     71    365.0       2165.    
  2919 2229-71-365     71    365.0       2165.    
  2920 2235-42-335     42    335.0       2226.    
  2921 2130-8-49        8    49.00       2299.    
  2922 2130-12-58      12    58.00       2285.    
  2923 2130-17-87      17    87.00       2271.    
  2924 2130-22-79      22    79.00       2267.    
  2925 2130-32-60      32    60.00       2246.    
  2926 2130-42-363     42    363.0       2218.    
  2927 2130-48-362     48    362.0       2201.    
  2928 2153-48-362     48    362.0       2195.    
     MULTIPLE LAYERS AND PROPORTIONS :    1, 0.54       2, 0.46
  2929 2153-55-349     55    349.0       2174.    
     MULTIPLE LAYERS AND PROPORTIONS :    1, 0.54       2, 0.46
  2930 2153-61-33      61    33.00       2157.    
     MULTIPLE LAYERS AND PROPORTIONS :    1, 0.54       2, 0.46
  2931 2153-71-41      71    41.00       2153.    
     MULTIPLE LAYERS AND PROPORTIONS :    1, 0.54       2, 0.46
  2932 2153-71-365     71    365.0       2157.    
     MULTIPLE LAYERS AND PROPORTIONS :    1, 0.54       2, 0.46
  2933 2217-66-32      66    32.00       2149.    
  2934 2231-22-65      22    65.00       2279.    
  2935 2231-42-363     42    363.0       2229.    
  2936 2231-48-362     48    362.0       2209.    
  2937 2231-55-349     55    349.0       2193.    
  2938 2231-61-54      61    54.00       2170.    
  2939 2231-66-49      66    49.00       2150.    
  2940 2231-71-41      71    41.00       2166.    
  2941 2231-71-365     71    365.0       2172.    
  2942 2228-42-363     42    363.0       2226.    
     MULTIPLE LAYERS AND PROPORTIONS :    1, 0.54       2, 0.46
  2943 2228-48-362     48    362.0       2207.    
     MULTIPLE LAYERS AND PROPORTIONS :    1, 0.54       2, 0.46
  2944 2228-55-349     55    349.0       2190.    
     MULTIPLE LAYERS AND PROPORTIONS :    1, 0.54       2, 0.46
  2945 2228-61-54      61    54.00       2167.    
     MULTIPLE LAYERS AND PROPORTIONS :    1, 0.54       2, 0.46
  2946 2228-66-49      66    49.00       2146.    
     MULTIPLE LAYERS AND PROPORTIONS :    1, 0.54       2, 0.46
  2947 2228-71-41      71    41.00       2163.    
     MULTIPLE LAYERS AND PROPORTIONS :    1, 0.54       2, 0.46
  2948 2228-71-365     71    365.0       2169.    
     MULTIPLE LAYERS AND PROPORTIONS :    1, 0.54       2, 0.46
  2949 2056-12-58      12    58.00       2310.    
  2950 2056-22-66      22    66.00       2295.    
  2951 2056-27-61      27    61.00       2284.    
  2952 2032-7-32        7    32.00       2315.    
  2953 2032-12-58      12    58.00       2298.    
  2954 2032-32-83      32    83.00       2257.    
  2955 2033-42-363     42    363.0       2223.    
     MULTIPLE LAYERS AND PROPORTIONS :    1, 0.56       2, 0.44
  2956 2033-48-362     48    362.0       2197.    
     MULTIPLE LAYERS AND PROPORTIONS :    1, 0.56       2, 0.44
  2957 2033-56-34      56    34.00       2161.    
     MULTIPLE LAYERS AND PROPORTIONS :    1, 0.56       2, 0.44
  2958 2033-61-56      61    56.00       2153.    
     MULTIPLE LAYERS AND PROPORTIONS :    1, 0.56       2, 0.44
  2959 2033-66-54      66    54.00       2142.    
     MULTIPLE LAYERS AND PROPORTIONS :    1, 0.56       2, 0.44
  2960 2033-71-49      71    49.00       2159.    
     MULTIPLE LAYERS AND PROPORTIONS :    1, 0.56       2, 0.44
  2961 2033-71-365     71    365.0       2161.    
     MULTIPLE LAYERS AND PROPORTIONS :    1, 0.56       2, 0.44
  2962 2000-37-34      37    34.00       2238.    
  2963 2000-55-349     55    349.0       2170.    
  2964 2004-48-357     48    357.0       2201.    
  2965 2004-71-49      71    49.00       2165.    
  2966 2004-71-365     71    365.0       2168.    
  2967 2019-17-82      17    82.00       2303.    
     MULTIPLE LAYERS AND PROPORTIONS :    1, 0.69       2, 0.31
  2968 2019-22-69      22    69.00       2296.    
     MULTIPLE LAYERS AND PROPORTIONS :    1, 0.69       2, 0.31
  2969 2019-42-335     42    335.0       2229.    
     MULTIPLE LAYERS AND PROPORTIONS :    1, 0.69       2, 0.31
  2970 2019-48-365     48    365.0       2203.    
     MULTIPLE LAYERS AND PROPORTIONS :    1, 0.69       2, 0.31
  2971 2019-66-40      66    40.00       2144.    
     MULTIPLE LAYERS AND PROPORTIONS :    1, 0.69       2, 0.31
  2972 2019-71-49      71    49.00       2164.    
     MULTIPLE LAYERS AND PROPORTIONS :    1, 0.69       2, 0.31
  2973 2019-71-365     71    365.0       2169.    
     MULTIPLE LAYERS AND PROPORTIONS :    1, 0.69       2, 0.31
  2974 2015-66-40      66    40.00       2141.    
  2975 2015-71-49      71    49.00       2161.    
  2976 2015-71-365     71    365.0       2166.    
  2977 2023-42-363     42    363.0       2228.    
     MULTIPLE LAYERS AND PROPORTIONS :    1, 0.32       2, 0.57       3, 0.11
  2978 2023-48-365     48    365.0       2202.    
     MULTIPLE LAYERS AND PROPORTIONS :    1, 0.32       2, 0.57       3, 0.11
  2979 2023-55-349     55    349.0       2167.    
     MULTIPLE LAYERS AND PROPORTIONS :    1, 0.32       2, 0.57       3, 0.11
  2980 2023-61-54      61    54.00       2153.    
     MULTIPLE LAYERS AND PROPORTIONS :    1, 0.32       2, 0.57       3, 0.11
  2981 2023-71-49      71    49.00       2161.    
     MULTIPLE LAYERS AND PROPORTIONS :    1, 0.32       2, 0.57       3, 0.11
  2982 2023-71-365     71    365.0       2166.    
     MULTIPLE LAYERS AND PROPORTIONS :    1, 0.32       2, 0.57       3, 0.11
  2983 2060-48-365     48    365.0       2222.    
     MULTIPLE LAYERS AND PROPORTIONS :    1, 0.46       2, 0.54
  2984 2060-55-356     55    356.0       2188.    
     MULTIPLE LAYERS AND PROPORTIONS :    1, 0.46       2, 0.54
  2985 2060-61-54      61    54.00       2164.    
     MULTIPLE LAYERS AND PROPORTIONS :    1, 0.46       2, 0.54
  2986 2060-66-19      66    19.00       2151.    
     MULTIPLE LAYERS AND PROPORTIONS :    1, 0.46       2, 0.54
  2987 2060-71-42      71    42.00       2177.    
     MULTIPLE LAYERS AND PROPORTIONS :    1, 0.46       2, 0.54
  2988 2060-71-365     71    365.0       2185.    
     MULTIPLE LAYERS AND PROPORTIONS :    1, 0.46       2, 0.54
  2989 2115-22-66      22    66.00       2303.    
  2990 2105-42-363     42    363.0       2241.    
     MULTIPLE LAYERS AND PROPORTIONS :    1, 0.49       2, 0.51
  2991 2105-48-362     48    362.0       2214.    
     MULTIPLE LAYERS AND PROPORTIONS :    1, 0.49       2, 0.51
  2992 2105-56-33      56    33.00       2183.    
     MULTIPLE LAYERS AND PROPORTIONS :    1, 0.49       2, 0.51
  2993 2105-61-33      61    33.00       2164.    
     MULTIPLE LAYERS AND PROPORTIONS :    1, 0.49       2, 0.51
  2994 2105-66-32      66    32.00       2144.    
     MULTIPLE LAYERS AND PROPORTIONS :    1, 0.49       2, 0.51
  2995 2105-71-42      71    42.00       2167.    
     MULTIPLE LAYERS AND PROPORTIONS :    1, 0.49       2, 0.51
  2996 2105-71-365     71    365.0       2174.    
     MULTIPLE LAYERS AND PROPORTIONS :    1, 0.49       2, 0.51
  2997 2098-65-354     65    354.0       2136.    
  2998 2098-71-42      71    42.00       2167.    
  2999 2098-71-365     71    365.0       2174.    
  3000 2103-42-363     42    363.0       2240.    
     MULTIPLE LAYERS AND PROPORTIONS :    1, 0.64       2, 0.36
  3001 2103-48-362     48    362.0       2214.    
     MULTIPLE LAYERS AND PROPORTIONS :    1, 0.64       2, 0.36
  3002 2103-61-33      61    33.00       2163.    
     MULTIPLE LAYERS AND PROPORTIONS :    1, 0.64       2, 0.36
  3003 2103-66-32      66    32.00       2143.    
     MULTIPLE LAYERS AND PROPORTIONS :    1, 0.64       2, 0.36
  3004 2103-71-42      71    42.00       2166.    
     MULTIPLE LAYERS AND PROPORTIONS :    1, 0.64       2, 0.36
  3005 2103-71-365     71    365.0       2173.    
     MULTIPLE LAYERS AND PROPORTIONS :    1, 0.64       2, 0.36
  3006 2055-22-66      22    66.00       2304.    
  3007 2055-32-83      32    83.00       2278.    
  3008 2014-12-66      12    66.00       2336.    
  3009 2014-22-69      22    69.00       2316.    
  3010 2014-27-3       27    3.000       2305.    
  3011 2014-42-363     42    363.0       2244.    
  3012 2014-48-357     48    357.0       2217.    
  3013 2014-66-19      66    19.00       2145.    
  3014 2014-71-42      71    42.00       2170.    
  3015 2014-71-365     71    365.0       2177.    
  3016 2013-42-363     42    363.0       2241.    
     MULTIPLE LAYERS AND PROPORTIONS :    1, 0.30       2, 0.70
  3017 2013-48-357     48    357.0       2214.    
     MULTIPLE LAYERS AND PROPORTIONS :    1, 0.30       2, 0.70
  3018 2013-55-350     55    350.0       2174.    
     MULTIPLE LAYERS AND PROPORTIONS :    1, 0.30       2, 0.70
  3019 2013-61-33      61    33.00       2152.    
     MULTIPLE LAYERS AND PROPORTIONS :    1, 0.30       2, 0.70
  3020 2013-66-19      66    19.00       2142.    
     MULTIPLE LAYERS AND PROPORTIONS :    1, 0.30       2, 0.70
  3021 2013-71-42      71    42.00       2167.    
     MULTIPLE LAYERS AND PROPORTIONS :    1, 0.30       2, 0.70
  3022 2013-71-365     71    365.0       2174.    
     MULTIPLE LAYERS AND PROPORTIONS :    1, 0.30       2, 0.70
  3023 1974-22-79      22    79.00       2318.    
  3024 1974-26-307     26    307.0       2301.    
  3025 1974-42-363     42    363.0       2246.    
  3026 1974-48-357     48    357.0       2218.    
  3027 1966-42-363     42    363.0       2245.    
     MULTIPLE LAYERS AND PROPORTIONS :    1, 0.76       2, 0.24
  3028 1966-48-350     48    350.0       2223.    
     MULTIPLE LAYERS AND PROPORTIONS :    1, 0.76       2, 0.24
  3029 1966-55-350     55    350.0       2165.    
     MULTIPLE LAYERS AND PROPORTIONS :    1, 0.76       2, 0.24
  3030 1966-61-33      61    33.00       2154.    
     MULTIPLE LAYERS AND PROPORTIONS :    1, 0.76       2, 0.24
  3031 1966-66-19      66    19.00       2145.    
     MULTIPLE LAYERS AND PROPORTIONS :    1, 0.76       2, 0.24
  3032 1966-71-49      71    49.00       2171.    
     MULTIPLE LAYERS AND PROPORTIONS :    1, 0.76       2, 0.24
  3033 1966-71-365     71    365.0       2177.    
     MULTIPLE LAYERS AND PROPORTIONS :    1, 0.76       2, 0.24
  3034 1972-71-49      71    49.00       2170.    
  3035 1972-71-365     71    365.0       2176.    
  3036 2036-11-305     11    305.0       2344.    
  3037 2035-48-365     48    365.0       2231.    
     MULTIPLE LAYERS AND PROPORTIONS :    1, 0.41       2, 0.44       3, 0.15
  3038 2035-56-18      56    18.00       2185.    
     MULTIPLE LAYERS AND PROPORTIONS :    1, 0.41       2, 0.44       3, 0.15
  3039 2035-61-54      61    54.00       2162.    
     MULTIPLE LAYERS AND PROPORTIONS :    1, 0.41       2, 0.44       3, 0.15
  3040 2035-66-45      66    45.00       2155.    
     MULTIPLE LAYERS AND PROPORTIONS :    1, 0.41       2, 0.44       3, 0.15
  3041 2035-71-42      71    42.00       2184.    
     MULTIPLE LAYERS AND PROPORTIONS :    1, 0.41       2, 0.44       3, 0.15
  3042 2035-71-365     71    365.0       2192.    
     MULTIPLE LAYERS AND PROPORTIONS :    1, 0.41       2, 0.44       3, 0.15
  3043 1999-22-69      22    69.00       2326.    
  3044 1999-26-349     26    349.0       2314.    
  3045 1999-32-73      32    73.00       2299.    
  3046 1999-42-363     42    363.0       2250.    
  3047 1999-48-357     48    357.0       2223.    
  3048 1999-55-353     55    353.0       2185.    
  3049 1999-60-309     60    309.0       2168.    
  3050 1999-66-28      66    28.00       2150.    
  3051 1999-71-42      71    42.00       2176.    
  3052 1999-71-365     71    365.0       2184.    
  3053 1957-12-66      12    66.00       2349.    
  3054 1957-22-79      22    79.00       2326.    
  3055 1957-27-3       27    3.000       2317.    
  3056 1957-32-60      32    60.00       2301.    
  3057 1957-42-363     42    363.0       2251.    
  3058 1957-48-357     48    357.0       2224.    
  3059 1957-55-353     55    353.0       2183.    
  3060 1957-60-306     60    306.0       2159.    
  3061 1957-66-19      66    19.00       2149.    
  3062 1957-71-42      71    42.00       2176.    
  3063 1957-71-365     71    365.0       2183.    
  3064 2125-48-306     48    306.0       2306.    
  3065 2125-55-321     55    321.0       2297.    
  3066 2086-48-274     48    274.0       2286.    
  3067 2086-56-48      56    48.00       2275.    
  3068 2086-61-47      61    47.00       2260.    
  3069 2086-66-26      66    26.00       2236.    
  3070 2086-71-14      71    14.00       2266.    
  3071 2086-71-365     71    365.0       2276.    
  3072 2102-26-349     26    349.0       2337.    
     MULTIPLE LAYERS AND PROPORTIONS :    1, 0.19       2, 0.81
  3073 2102-48-274     48    274.0       2272.    
     MULTIPLE LAYERS AND PROPORTIONS :    1, 0.19       2, 0.81
  3074 2102-55-321     55    321.0       2250.    
     MULTIPLE LAYERS AND PROPORTIONS :    1, 0.19       2, 0.81
  3075 2102-60-319     60    319.0       2236.    
     MULTIPLE LAYERS AND PROPORTIONS :    1, 0.19       2, 0.81
  3076 2102-66-1       66   1.0000       2213.    
     MULTIPLE LAYERS AND PROPORTIONS :    1, 0.19       2, 0.81
  3077 2102-71-42      71    42.00       2243.    
     MULTIPLE LAYERS AND PROPORTIONS :    1, 0.19       2, 0.81
  3078 2102-71-365     71    365.0       2253.    
     MULTIPLE LAYERS AND PROPORTIONS :    1, 0.19       2, 0.81
  3079 2054-39-31      39    31.00       2277.    
     MULTIPLE LAYERS AND PROPORTIONS :    1, 0.31       2, 0.69
  3080 2054-48-357     48    357.0       2251.    
     MULTIPLE LAYERS AND PROPORTIONS :    1, 0.31       2, 0.69
  3081 2054-55-349     55    349.0       2217.    
     MULTIPLE LAYERS AND PROPORTIONS :    1, 0.31       2, 0.69
  3082 2054-61-3       61    3.000       2190.    
     MULTIPLE LAYERS AND PROPORTIONS :    1, 0.31       2, 0.69
  3083 2054-66-40      66    40.00       2178.    
     MULTIPLE LAYERS AND PROPORTIONS :    1, 0.31       2, 0.69
  3084 2054-71-42      71    42.00       2206.    
     MULTIPLE LAYERS AND PROPORTIONS :    1, 0.31       2, 0.69
  3085 2054-71-365     71    365.0       2214.    
     MULTIPLE LAYERS AND PROPORTIONS :    1, 0.31       2, 0.69
  3086 2063-22-69      22    69.00       2354.    
  3087 1996-11-86      11    86.00       2369.    
  3088 1997-22-60      22    60.00       2344.    
  3089 1997-32-60      32    60.00       2306.    
  3090 1997-55-349     55    349.0       2199.    
  3091 1997-65-354     65    354.0       2163.    
  3092 1997-71-42      71    42.00       2191.    
  3093 1997-71-365     71    365.0       2199.    
  3094 1949-48-334     48    334.0       2226.    
  3095 1949-56-17      56    17.00       2197.    
  3096 1942-56-17      56    17.00       2198.    
     MULTIPLE LAYERS AND PROPORTIONS :    1, 0.16       2, 0.84
  3097 1942-61-53      61    53.00       2161.    
     MULTIPLE LAYERS AND PROPORTIONS :    1, 0.16       2, 0.84
  3098 1942-66-19      66    19.00       2167.    
     MULTIPLE LAYERS AND PROPORTIONS :    1, 0.16       2, 0.84
  3099 1942-71-42      71    42.00       2192.    
     MULTIPLE LAYERS AND PROPORTIONS :    1, 0.16       2, 0.84
  3100 1942-71-365     71    365.0       2199.    
     MULTIPLE LAYERS AND PROPORTIONS :    1, 0.16       2, 0.84
  3101 1943-33-314     33    314.0       2310.    
  3102 2078-65-355     65    355.0       2293.    
  3103 2078-71-42      71    42.00       2295.    
  3104 2078-71-365     71    365.0       2311.    
  3105 2072-16-364     16    364.0       2386.    
  3106 2072-27-10      27   10.000       2370.    
  3107 2030-42-362     42    362.0       2302.    
     MULTIPLE LAYERS AND PROPORTIONS :    1, 0.56       2, 0.44
  3108 2030-48-357     48    357.0       2279.    
     MULTIPLE LAYERS AND PROPORTIONS :    1, 0.56       2, 0.44
  3109 2030-55-348     55    348.0       2271.    
     MULTIPLE LAYERS AND PROPORTIONS :    1, 0.56       2, 0.44
  3110 2030-61-3       61    3.000       2261.    
     MULTIPLE LAYERS AND PROPORTIONS :    1, 0.56       2, 0.44
  3111 2030-65-355     65    355.0       2258.    
     MULTIPLE LAYERS AND PROPORTIONS :    1, 0.56       2, 0.44
  3112 2030-71-42      71    42.00       2270.    
     MULTIPLE LAYERS AND PROPORTIONS :    1, 0.56       2, 0.44
  3113 2030-71-365     71    365.0       2276.    
     MULTIPLE LAYERS AND PROPORTIONS :    1, 0.56       2, 0.44
  3114 2082-22-32      22    32.00       2373.    
     MULTIPLE LAYERS AND PROPORTIONS :    1, 0.77       2, 0.23
  3115 2081-8-101       8    101.0       2392.    
  3116 2081-12-109     12    109.0       2384.    
  3117 2081-22-68      22    68.00       2370.    
  3118 2081-42-364     42    364.0       2318.    
  3119 2081-56-18      56    18.00       2301.    
  3120 2081-71-13      71    13.00       2288.    
  3121 2081-71-365     71    365.0       2286.    
  3122 2101-8-51        8    51.00       2389.    
  3123 2101-11-86      11    86.00       2381.    
  3124 2101-22-32      22    32.00       2365.    
  3125 2101-27-10      27   10.000       2363.    
  3126 1986-27-81      27    81.00       2345.    
     MULTIPLE LAYERS AND PROPORTIONS :    1, 0.59       2, 0.41
  3127 1986-42-362     42    362.0       2280.    
     MULTIPLE LAYERS AND PROPORTIONS :    1, 0.59       2, 0.41
  3128 1986-48-334     48    334.0       2249.    
     MULTIPLE LAYERS AND PROPORTIONS :    1, 0.59       2, 0.41
  3129 1986-55-321     55    321.0       2221.    
     MULTIPLE LAYERS AND PROPORTIONS :    1, 0.59       2, 0.41
  3130 1986-61-47      61    47.00       2189.    
     MULTIPLE LAYERS AND PROPORTIONS :    1, 0.59       2, 0.41
  3131 1986-66-32      66    32.00       2184.    
     MULTIPLE LAYERS AND PROPORTIONS :    1, 0.59       2, 0.41
  3132 1986-71-14      71    14.00       2211.    
     MULTIPLE LAYERS AND PROPORTIONS :    1, 0.59       2, 0.41
  3133 1986-71-42      71    42.00       2210.    
     MULTIPLE LAYERS AND PROPORTIONS :    1, 0.59       2, 0.41
  3134 1986-71-365     71    365.0       2216.    
     MULTIPLE LAYERS AND PROPORTIONS :    1, 0.59       2, 0.41
  3135 1986-71-365     71    365.0       2216.    
     MULTIPLE LAYERS AND PROPORTIONS :    1, 0.59       2, 0.41
  3136 1956-32-83      32    83.00       2331.    
  3137 1956-37-34      37    34.00       2320.    
  3138 1948-48-274     48    274.0       2256.    
     MULTIPLE LAYERS AND PROPORTIONS :    1, 0.38       2, 0.62
  3139 2117-8-182       8    182.0       2421.    
  3140 2093-66-26      66    26.00       2423.    
     MULTIPLE LAYERS AND PROPORTIONS :    1, 0.55       2, 0.45
  3141 2071-16-364     16    364.0       2400.    
  3142 2053-56-33      56    33.00       2294.    
  3143 2053-65-355     65    355.0       2269.    
  3144 2053-71-43      71    43.00       2283.    
  3145 2053-71-365     71    365.0       2293.    
  3146 2046-61-3       61    3.000       2256.    
  3147 2046-65-355     65    355.0       2242.    
  3148 2046-71-49      71    49.00       2264.    
  3149 2046-71-365     71    365.0       2270.    
  3150 2029-66-45      66    45.00       2227.    
  3151 2029-71-43      71    43.00       2250.    
  3152 2029-71-365     71    365.0       2255.    
  3153 2026-71-43      71    43.00       2248.    
  3154 2026-71-365     71    365.0       2253.    
  3155 2028-71-43      71    43.00       2251.    
     MULTIPLE LAYERS AND PROPORTIONS :    1, 0.85       2, 0.15
  3156 2028-71-365     71    365.0       2256.    
     MULTIPLE LAYERS AND PROPORTIONS :    1, 0.85       2, 0.15
  3157 2048-56-33      56    33.00       2303.    
  3158 2048-65-355     65    355.0       2301.    
  3159 2048-71-49      71    49.00       2296.    
  3160 2048-71-365     71    365.0       2315.    
  3161 2049-55-347     55    347.0       2298.    
  3162 2049-65-355     65    355.0       2294.    
  3163 2049-71-43      71    43.00       2294.    
  3164 2049-71-365     71    365.0       2308.    
  3165 1995-22-69      22    69.00       2376.    
  3166 1995-26-280     26    280.0       2360.    
  3167 1995-42-355     42    355.0       2298.    
  3168 1995-48-357     48    357.0       2272.    
  3169 1995-56-17      56    17.00       2243.    
  3170 1995-61-3       61    3.000       2216.    
  3171 1995-65-355     65    355.0       2209.    
  3172 1995-71-43      71    43.00       2234.    
  3173 1995-71-365     71    365.0       2238.    
  3174 1947-22-79      22    79.00       2368.    
  3175 1947-26-349     26    349.0       2357.    
  3176 1947-32-73      32    73.00       2330.    
  3177 1947-39-31      39    31.00       2300.    
  3178 1947-48-355     48    355.0       2258.    
  3179 1947-55-348     55    348.0       2229.    
  3180 1947-61-3       61    3.000       2202.    
  3181 1947-66-1       66   1.0000       2200.    
  3182 1947-71-43      71    43.00       2220.    
  3183 1947-71-365     71    365.0       2224.    
  3184 1985-56-25      56    25.00       2240.    
     MULTIPLE LAYERS AND PROPORTIONS :    1, 0.25       2, 0.75
  3185 1985-66-33      66    33.00       2212.    
     MULTIPLE LAYERS AND PROPORTIONS :    1, 0.25       2, 0.75
  3186 1985-71-42      71    42.00       2234.    
     MULTIPLE LAYERS AND PROPORTIONS :    1, 0.25       2, 0.75
  3187 2017-42-363     42    363.0       2298.    
     MULTIPLE LAYERS AND PROPORTIONS :    1, 0.47       2, 0.53
  3188 2017-48-337     48    337.0       2272.    
     MULTIPLE LAYERS AND PROPORTIONS :    1, 0.47       2, 0.53
  3189 2017-56-24      56    24.00       2232.    
     MULTIPLE LAYERS AND PROPORTIONS :    1, 0.47       2, 0.53
  3190 2017-61-55      61    55.00       2217.    
     MULTIPLE LAYERS AND PROPORTIONS :    1, 0.47       2, 0.53
  3191 2017-66-24      66    24.00       2211.    
     MULTIPLE LAYERS AND PROPORTIONS :    1, 0.47       2, 0.53
  3192 2017-71-42      71    42.00       2234.    
     MULTIPLE LAYERS AND PROPORTIONS :    1, 0.47       2, 0.53
  3193 1941-16-364     16    364.0       2401.    
  3194 2339-1-365       1    365.0       2477.    
 Observation within a steady-state time step has been moved to the end of the time step.
  3195 2339-12-113     12    113.0       2470.    
  3196 2339-22-74      22    74.00       2475.    
  3197 2435-11-80      11    80.00       2546.    
  3198 2435-22-72      22    72.00       2542.    
  3199 2443-48-336     48    336.0       2547.    
  3200 2443-56-20      56    20.00       2553.    
  3201 2443-61-54      61    54.00       2557.    
  3202 2443-66-24      66    24.00       2554.    
  3203 2443-71-42      71    42.00       2576.    
  3204 2379-22-74      22    74.00       2529.    
  3205 2379-42-356     42    356.0       2540.    
  3206 2379-48-336     48    336.0       2543.    
  3207 2379-56-19      56    19.00       2542.    
  3208 2379-61-55      61    55.00       2541.    
  3209 2379-66-27      66    27.00       2540.    
  3210 2379-71-42      71    42.00       2542.    
  3211 2375-42-357     42    357.0       2537.    
  3212 2375-48-350     48    350.0       2537.    
  3213 2375-55-348     55    348.0       2533.    
  3214 2375-61-48      61    48.00       2534.    
  3215 2375-65-350     65    350.0       2532.    
  3216 2375-71-55      71    55.00       2534.    
  3217 2375-71-365     71    365.0       2537.    
  3218 2338-22-74      22    74.00       2520.    
  3219 2338-48-355     48    355.0       2525.    
  3220 2338-56-5       56    5.000       2527.    
  3221 2338-61-48      61    48.00       2518.    
  3222 2338-65-350     65    350.0       2512.    
  3223 2338-71-55      71    55.00       2514.    
  3224 2338-71-365     71    365.0       2515.    
  3225 2205-22-74      22    74.00       2581.    
  3226 2200-22-85      22    85.00       2588.    
  3227 2189-61-55      61    55.00       2613.    
  3228 2173-61-60      61    60.00       2348.    
  3229 2323-22-74      22    74.00       2524.    
  3230 2193-48-336     48    336.0       2511.    
  3231 2193-56-19      56    19.00       2510.    
  3232 2193-61-55      61    55.00       2497.    
  3233 2193-66-27      66    27.00       2479.    
  3234 2193-71-42      71    42.00       2474.    
  3235 2100-12-113     12    113.0       2520.    
  3236 2100-22-75      22    75.00       2520.    
  3237 2100-42-357     42    357.0       2510.    
  3238 2100-48-336     48    336.0       2507.    
  3239 2100-55-347     55    347.0       2504.    
  3240 2100-61-48      61    48.00       2491.    
  3241 2100-65-356     65    356.0       2472.    
  3242 2100-71-42      71    42.00       2467.    
  3243 2100-71-54      71    54.00       2466.    
  3244 2100-71-365     71    365.0       2471.    
  3245 2324-27-11      27    11.00       2564.    
  3246 2324-38-91      38    91.00       2574.    
  3247 2324-42-356     42    356.0       2520.    
  3248 2324-56-20      56    20.00       2523.    
  3249 2324-66-28      66    28.00       2504.    
  3250 2324-71-63      71    63.00       2498.    
  3251 2285-22-74      22    74.00       2515.    
  3252 2285-32-67      32    67.00       2518.    
  3253 2285-38-60      38    60.00       2513.    
  3254 2285-71-63      71    63.00       2515.    
  3255 2119-42-357     42    357.0       2493.    
  3256 2119-48-355     48    355.0       2494.    
  3257 2119-55-348     55    348.0       2502.    
  3258 2119-61-49      61    49.00       2485.    
  3259 2119-71-55      71    55.00       2505.    
  3260 2119-71-365     71    365.0       2487.    
  3261 2184-33-274     33    274.0       2510.    
     MULTIPLE LAYERS AND PROPORTIONS :    1, 0.52       2, 0.48
  3262 2179-33-26      33    26.00       2473.    
  3263 2179-48-337     48    337.0       2408.    
  3264 2179-56-20      56    20.00       2452.    
  3265 2179-66-28      66    28.00       2429.    
  3266 2297-42-355     42    355.0       2484.    
  3267 2297-48-336     48    336.0       2484.    
  3268 2297-56-20      56    20.00       2475.    
  3269 2297-61-54      61    54.00       2466.    
  3270 2297-66-21      66    21.00       2455.    
  3271 2297-71-41      71    41.00       2466.    
  3272 2185-42-357     42    357.0       2455.    
  3273 2185-48-355     48    355.0       2455.    
  3274 2185-55-347     55    347.0       2455.    
  3275 2185-66-45      66    45.00       2454.    
  3276 2185-71-344     71    344.0       2454.    
  3277 2134-16-361     16    361.0       2462.    
  3278 2134-22-32      22    32.00       2459.    
  3279 2134-27-11      27    11.00       2465.    
  3280 2134-48-357     48    357.0       2452.    
  3281 2134-55-347     55    347.0       2458.    
  3282 2134-66-45      66    45.00       2458.    
  3283 2134-71-344     71    344.0       2450.    
  3284 2091-61-55      61    55.00       2458.    
  3285 2091-66-26      66    26.00       2475.    
  3286 2091-71-55      71    55.00       2473.    
  3287 2097-48-337     48    337.0       2447.    
  3288 2097-56-23      56    23.00       2454.    
  3289 2097-66-26      66    26.00       2455.    
  3290 2097-71-55      71    55.00       2455.    
  3291 2068-12-281     12    281.0       2453.    
  3292 2070-48-357     48    357.0       2440.    
  3293 2070-55-348     55    348.0       2456.    
  3294 2070-60-348     60    348.0       2441.    
  3295 2070-66-1       66   1.0000       2451.    
  3296 2070-71-365     71    365.0       2433.    
  3297 2027-39-31      39    31.00       2345.    
  3298 2025-66-26      66    26.00       2299.    
  3299 2025-71-55      71    55.00       2304.    
  3300 2010-32-67      32    67.00       2364.    
  3301 1954-32-67      32    67.00       2376.    
  3302 1954-48-355     48    355.0       2305.    
  3303 1954-55-347     55    347.0       2293.    
  3304 1954-66-45      66    45.00       2266.    
  3305 1954-71-344     71    344.0       2283.    
  3306 1963-32-85      32    85.00       2370.    
  3307 1963-42-357     42    357.0       2326.    
  3308 1963-48-355     48    355.0       2304.    
  3309 1963-55-348     55    348.0       2291.    
  3310 1963-61-49      61    49.00       2274.    
  3311 1963-65-356     65    356.0       2263.    
  3312 1963-71-365     71    365.0       2282.    
  3313 2090-27-11      27    11.00       2485.    
  3314 2065-66-45      66    45.00       2433.    
  3315 2065-71-365     71    365.0       2441.    
  3316 2003-71-365     71    365.0       2445.    
  3317 1984-42-355     42    355.0       2470.    
  3318 1984-48-336     48    336.0       2463.    
  3319 2116-65-350     65    350.0       2453.    
  3320 2047-56-19      56    19.00       2480.    
  3321 2047-61-55      61    55.00       2445.    
  3322 2047-66-21      66    21.00       2418.    
  3323 2044-56-19      56    19.00       2475.    
  3324 2044-61-55      61    55.00       2440.    
  3325 2044-66-21      66    21.00       2413.    
  3326 2044-71-41      71    41.00       2429.    
  3327 2018-34-212     34    212.0       2503.    
     MULTIPLE LAYERS AND PROPORTIONS :    1, 0.68       2, 0.32
  3328 2012-1-52        1    52.00       2487.    
 Observation within a steady-state time step has been moved to the end of the time step.
  3329 2012-42-335     42    335.0       2470.    
  3330 2012-48-355     48    355.0       2465.    
  3331 2012-55-348     55    348.0       2470.    
  3332 2012-66-1       66   1.0000       2417.    
  3333 2012-71-365     71    365.0       2440.    
  3334 1979-56-23      56    23.00       2478.    
  3335 1979-61-55      61    55.00       2438.    
  3336 2002-16-361     16    361.0       2488.    
  3337 2002-27-12      27    12.00       2490.    
  3338 1961-56-23      56    23.00       2472.    
  3339 1961-66-26      66    26.00       2406.    
  3340 1961-71-41      71    41.00       2420.    
  3341 2080-42-356     42    356.0       2511.    
  3342 2080-48-350     48    350.0       2506.    
  3343 2080-55-347     55    347.0       2504.    
  3344 2080-66-45      66    45.00       2465.    
  3345 2042-55-347     55    347.0       2498.    
  3346 2042-65-356     65    356.0       2451.    
  3347 2042-71-54      71    54.00       2447.    
  3348 2042-71-365     71    365.0       2454.    
  3349 1964-33-38      33    38.00       2501.    
     MULTIPLE LAYERS AND PROPORTIONS :    1, 0.16       2, 0.84
  3350 1976-42-357     42    357.0       2465.    
  3351 1976-48-355     48    355.0       2503.    
  3352 1976-55-348     55    348.0       2474.    
  3353 1976-60-305     60    305.0       2439.    
  3354 1976-66-1       66   1.0000       2402.    
  3355 1976-71-55      71    55.00       2414.    
  3356 1976-71-365     71    365.0       2424.    
  3357 1970-42-356     42    356.0       2502.    
  3358 1970-48-336     48    336.0       2495.    
  3359 1970-56-19      56    19.00       2505.    
  3360 2051-43-1       43   1.0000       2503.    
  3361 2051-65-356     65    356.0       2450.    
  3362 2051-71-54      71    54.00       2447.    
  3363 2051-71-365     71    365.0       2451.    
  3364 1973-11-214     11    214.0       2529.    
  3365 1969-11-190     11    190.0       2517.    
  3366 1946-66-5       66    5.000       2443.    
  3367 1946-71-22      71    22.00       2447.    
  3368 1946-71-365     71    365.0       2456.    
  3369 1967-27-87      27    87.00       2542.    
     MULTIPLE LAYERS AND PROPORTIONS :    1, 0.12       2, 0.88
  3370 1967-42-356     42    356.0       2502.    
  3371 1967-48-350     48    350.0       2494.    
  3372 1967-55-347     55    347.0       2495.    
  3373 1967-66-5       66    5.000       2444.    
     MULTIPLE LAYERS AND PROPORTIONS :    1, 0.12       2, 0.88
  3374 1967-71-22      71    22.00       2446.    
     MULTIPLE LAYERS AND PROPORTIONS :    1, 0.12       2, 0.88
  3375 1967-71-365     71    365.0       2454.    
     MULTIPLE LAYERS AND PROPORTIONS :    1, 0.12       2, 0.88
  3376 1939-42-356     42    356.0       2504.    
     MULTIPLE LAYERS AND PROPORTIONS :    2, 0.49       3, 0.51
  3377 1939-48-350     48    350.0       2495.    
     MULTIPLE LAYERS AND PROPORTIONS :    2, 0.49       3, 0.51
  3378 1939-55-347     55    347.0       2497.    
     MULTIPLE LAYERS AND PROPORTIONS :    2, 0.49       3, 0.51
  3379 1939-60-356     60    356.0       2480.    
     MULTIPLE LAYERS AND PROPORTIONS :    2, 0.49       3, 0.51
  3380 1939-71-22      71    22.00       2448.    
  3381 1939-71-365     71    365.0       2457.    
  3382 1975-16-361     16    361.0       2581.    
  3383 1975-27-12      27    12.00       2580.    
  3384 1945-56-25      56    25.00       2584.    
  3385 1945-61-54      61    54.00       2569.    
  3386 1945-66-27      66    27.00       2577.    
  3387 1945-71-41      71    41.00       2576.    
  3388 1711-42-352     42    352.0       1846.    
  3389 1711-48-350     48    350.0       1844.    
  3390 1711-55-354     55    354.0       1846.    
  3391 1711-61-21      61    21.00       1848.    
  3392 1711-66-39      66    39.00       1836.    
  3393 1711-71-7       71    7.000       1842.    
  3394 1711-71-365     71    365.0       1843.    
  3395 1555-27-24      27    24.00       1867.    
     MULTIPLE LAYERS AND PROPORTIONS :    2, 0.23       3, 0.77
  3396 1555-31-348     31    348.0       1851.    
     MULTIPLE LAYERS AND PROPORTIONS :    2, 0.23       3, 0.77
  3397 1555-37-341     37    341.0       1811.    
     MULTIPLE LAYERS AND PROPORTIONS :    2, 0.23       3, 0.77
  3398 1555-48-348     48    348.0       1846.    
     MULTIPLE LAYERS AND PROPORTIONS :    2, 0.23       3, 0.77
  3399 1555-56-27      56    27.00       1843.    
     MULTIPLE LAYERS AND PROPORTIONS :    2, 0.23       3, 0.77
  3400 1555-60-319     60    319.0       1847.    
     MULTIPLE LAYERS AND PROPORTIONS :    2, 0.23       3, 0.77
  3401 1555-65-301     65    301.0       1827.    
     MULTIPLE LAYERS AND PROPORTIONS :    2, 0.23       3, 0.77
  3402 1555-71-11      71    11.00       1841.    
     MULTIPLE LAYERS AND PROPORTIONS :    2, 0.23       3, 0.77
  3403 1555-71-365     71    365.0       1845.    
     MULTIPLE LAYERS AND PROPORTIONS :    2, 0.23       3, 0.77
  3404 1428-11-1       11   1.0000       1997.    
  3405 1428-17-11      17    11.00       1983.    
  3406 1428-22-12      22    12.00       1969.    
  3407 1428-32-85      32    85.00       1946.    
  3408 1383-1-106       1    106.0       2023.    
 Observation within a steady-state time step has been moved to the end of the time step.
  3409 1383-7-337       7    337.0       2024.    
  3410 1383-12-361     12    361.0       2025.    
  3411 1819-38-13      38    13.00       1884.    
     MULTIPLE LAYERS AND PROPORTIONS :    2, 0.69       3, 0.31
  3412 1819-42-352     42    352.0       1885.    
     MULTIPLE LAYERS AND PROPORTIONS :    2, 0.69       3, 0.31
  3413 1819-55-354     55    354.0       1873.    
     MULTIPLE LAYERS AND PROPORTIONS :    2, 0.69       3, 0.31
  3414 1820-71-12      71    12.00       1977.    
  3415 1820-71-365     71    365.0       1948.    
  3416 1748-17-6       17    6.000       1946.    
     MULTIPLE LAYERS AND PROPORTIONS :    2, 0.51       3, 0.49
  3417 1748-21-335     21    335.0       1923.    
     MULTIPLE LAYERS AND PROPORTIONS :    2, 0.51       3, 0.49
  3418 1748-48-348     48    348.0       1881.    
     MULTIPLE LAYERS AND PROPORTIONS :    2, 0.51       3, 0.49
  3419 1748-60-305     60    305.0       1887.    
     MULTIPLE LAYERS AND PROPORTIONS :    2, 0.51       3, 0.49
  3420 1748-66-1       66   1.0000       1901.    
     MULTIPLE LAYERS AND PROPORTIONS :    2, 0.51       3, 0.49
  3421 1748-71-8       71    8.000       1952.    
     MULTIPLE LAYERS AND PROPORTIONS :    2, 0.51       3, 0.49
  3422 1748-71-365     71    365.0       1953.    
     MULTIPLE LAYERS AND PROPORTIONS :    2, 0.51       3, 0.49
  3423 1903-71-365     71    365.0       1926.    
  3424 1862-71-365     71    365.0       1905.    
  3425 1861-65-364     65    364.0       1916.    
  3426 1861-71-365     71    365.0       1952.    
  3427 1833-71-365     71    365.0       1934.    
  3428 1770-71-365     71    365.0       1954.    
  3429 1758-71-365     71    365.0       1924.    
  3430 1709-22-38      22    38.00       1907.    
     MULTIPLE LAYERS AND PROPORTIONS :    2, 0.33       3, 0.67
  3431 1709-42-352     42    352.0       1881.    
     MULTIPLE LAYERS AND PROPORTIONS :    2, 0.33       3, 0.67
  3432 1709-55-354     55    354.0       1871.    
     MULTIPLE LAYERS AND PROPORTIONS :    2, 0.33       3, 0.67
  3433 1709-65-344     65    344.0       1908.    
     MULTIPLE LAYERS AND PROPORTIONS :    2, 0.33       3, 0.67
  3434 1709-71-365     71    365.0       1954.    
     MULTIPLE LAYERS AND PROPORTIONS :    2, 0.33       3, 0.67
  3435 1700-71-365     71    365.0       1954.    
  3436 1828-71-365     71    365.0       1954.    
  3437 1698-71-365     71    365.0       1984.    
  3438 1883-65-336     65    336.0       1858.    
  3439 1883-71-365     71    365.0       1882.    
  3440 1838-71-365     71    365.0       1856.    
  3441 1805-71-365     71    365.0       1842.    
  3442 1702-16-354     16    354.0       1930.    
     MULTIPLE LAYERS AND PROPORTIONS :    2, 0.37       3, 0.63
  3443 1702-42-352     42    352.0       1867.    
     MULTIPLE LAYERS AND PROPORTIONS :    2, 0.37       3, 0.63
  3444 1702-48-349     48    349.0       1865.    
     MULTIPLE LAYERS AND PROPORTIONS :    2, 0.37       3, 0.63
  3445 1702-55-354     55    354.0       1861.    
     MULTIPLE LAYERS AND PROPORTIONS :    2, 0.37       3, 0.63
  3446 1702-61-31      61    31.00       1873.    
     MULTIPLE LAYERS AND PROPORTIONS :    2, 0.37       3, 0.63
  3447 1702-65-344     65    344.0       1835.    
     MULTIPLE LAYERS AND PROPORTIONS :    2, 0.37       3, 0.63
  3448 1702-71-365     71    365.0       1869.    
  3449 1704-71-365     71    365.0       1865.    
  3450 1829-71-365     71    365.0       1888.    
  3451 1710-17-6       17    6.000       1935.    
     MULTIPLE LAYERS AND PROPORTIONS :    2, 0.18       3, 0.82
  3452 1710-42-352     42    352.0       1874.    
     MULTIPLE LAYERS AND PROPORTIONS :    2, 0.18       3, 0.82
  3453 1710-48-349     48    349.0       1871.    
     MULTIPLE LAYERS AND PROPORTIONS :    2, 0.18       3, 0.82
  3454 1710-55-354     55    354.0       1867.    
     MULTIPLE LAYERS AND PROPORTIONS :    2, 0.18       3, 0.82
  3455 1710-61-31      61    31.00       1882.    
     MULTIPLE LAYERS AND PROPORTIONS :    2, 0.18       3, 0.82
  3456 1710-65-344     65    344.0       1849.    
     MULTIPLE LAYERS AND PROPORTIONS :    2, 0.18       3, 0.82
  3457 1710-71-365     71    365.0       1891.    
  3458 1703-71-365     71    365.0       1899.    
  3459 1663-12-305     12    305.0       1964.    
     MULTIPLE LAYERS AND PROPORTIONS :    2, 0.25       3, 0.75
  3460 1663-42-352     42    352.0       1877.    
     MULTIPLE LAYERS AND PROPORTIONS :    2, 0.25       3, 0.75
  3461 1663-48-349     48    349.0       1873.    
     MULTIPLE LAYERS AND PROPORTIONS :    2, 0.25       3, 0.75
  3462 1663-55-354     55    354.0       1869.    
     MULTIPLE LAYERS AND PROPORTIONS :    2, 0.25       3, 0.75
  3463 1663-61-31      61    31.00       1880.    
     MULTIPLE LAYERS AND PROPORTIONS :    2, 0.25       3, 0.75
  3464 1663-65-338     65    338.0       1844.    
     MULTIPLE LAYERS AND PROPORTIONS :    2, 0.25       3, 0.75
  3465 1663-71-365     71    365.0       1891.    
  3466 1667-71-365     71    365.0       1888.    
  3467 1686-71-365     71    365.0       1980.    
  3468 1653-71-365     71    365.0       2007.    
  3469 1634-71-365     71    365.0       1985.    
  3470 1637-71-365     71    365.0       1997.    
  3471 1635-71-365     71    365.0       1936.    
  3472 1584-17-6       17    6.000       1957.    
     MULTIPLE LAYERS AND PROPORTIONS :    2, 0.41       3, 0.59
  3473 1584-22-38      22    38.00       1934.    
     MULTIPLE LAYERS AND PROPORTIONS :    2, 0.41       3, 0.59
  3474 1584-27-27      27    27.00       1919.    
     MULTIPLE LAYERS AND PROPORTIONS :    2, 0.41       3, 0.59
  3475 1584-32-85      32    85.00       1896.    
     MULTIPLE LAYERS AND PROPORTIONS :    2, 0.41       3, 0.59
  3476 1584-37-34      37    34.00       1893.    
     MULTIPLE LAYERS AND PROPORTIONS :    2, 0.41       3, 0.59
  3477 1584-42-352     42    352.0       1904.    
     MULTIPLE LAYERS AND PROPORTIONS :    2, 0.41       3, 0.59
  3478 1584-48-348     48    348.0       1898.    
     MULTIPLE LAYERS AND PROPORTIONS :    2, 0.41       3, 0.59
  3479 1584-55-354     55    354.0       1891.    
     MULTIPLE LAYERS AND PROPORTIONS :    2, 0.41       3, 0.59
  3480 1584-60-323     60    323.0       1899.    
     MULTIPLE LAYERS AND PROPORTIONS :    2, 0.41       3, 0.59
  3481 1584-65-344     65    344.0       1892.    
     MULTIPLE LAYERS AND PROPORTIONS :    2, 0.41       3, 0.59
  3482 1584-71-365     71    365.0       1958.    
     MULTIPLE LAYERS AND PROPORTIONS :    2, 0.41       3, 0.59
  3483 1585-71-365     71    365.0       1953.    
  3484 1592-71-365     71    365.0       1979.    
  3485 1591-71-365     71    365.0       1992.    
  3486 1590-71-365     71    365.0       1994.    
  3487 1650-71-365     71    365.0       1967.    
  3488 1684-48-275     48    275.0       1902.    
  3489 1684-66-20      66    20.00       1899.    
  3490 1685-48-275     48    275.0       1902.    
  3491 1685-66-20      66    20.00       1896.    
  3492 1496-21-355     21    355.0       1982.    
  3493 1496-27-27      27    27.00       1971.    
  3494 1496-32-85      32    85.00       1959.    
  3495 1496-36-91      36    91.00       1953.    
  3496 1496-56-19      56    19.00       1930.    
  3497 1491-56-19      56    19.00       1932.    
  3498 1501-16-309     16    309.0       2004.    
  3499 1497-48-300     48    300.0       1940.    
  3500 1497-55-318     55    318.0       1931.    
  3501 1497-60-313     60    313.0       1916.    
  3502 1497-65-364     65    364.0       1898.    
  3503 1497-71-350     71    350.0       1941.    
  3504 1498-48-300     48    300.0       1941.    
  3505 1498-55-318     55    318.0       1930.    
  3506 1498-60-313     60    313.0       1917.    
  3507 1498-65-364     65    364.0       1898.    
  3508 1498-71-350     71    350.0       1942.    
  3509 1442-36-1       36   1.0000       1957.    
     MULTIPLE LAYERS AND PROPORTIONS :    2, 0.09       3, 0.91
  3510 1442-42-349     42    349.0       1941.    
     MULTIPLE LAYERS AND PROPORTIONS :    2, 0.09       3, 0.91
  3511 1442-48-349     48    349.0       1933.    
     MULTIPLE LAYERS AND PROPORTIONS :    2, 0.09       3, 0.91
  3512 1442-55-353     55    353.0       1923.    
     MULTIPLE LAYERS AND PROPORTIONS :    2, 0.09       3, 0.91
  3513 1442-61-21      61    21.00       1907.    
     MULTIPLE LAYERS AND PROPORTIONS :    2, 0.09       3, 0.91
  3514 1473-10-213     10    213.0       2021.    
  3515 1407-22-38      22    38.00       1991.    
     MULTIPLE LAYERS AND PROPORTIONS :    2, 0.83       3, 0.17
  3516 1407-42-349     42    349.0       1957.    
     MULTIPLE LAYERS AND PROPORTIONS :    2, 0.83       3, 0.17
  3517 1407-48-349     48    349.0       1949.    
     MULTIPLE LAYERS AND PROPORTIONS :    2, 0.83       3, 0.17
  3518 1407-55-353     55    353.0       1937.    
     MULTIPLE LAYERS AND PROPORTIONS :    2, 0.83       3, 0.17
  3519 1407-61-21      61    21.00       1916.    
     MULTIPLE LAYERS AND PROPORTIONS :    2, 0.83       3, 0.17
  3520 1407-66-34      66    34.00       1900.    
     MULTIPLE LAYERS AND PROPORTIONS :    2, 0.83       3, 0.17
  3521 1407-71-365     71    365.0       1990.    
     MULTIPLE LAYERS AND PROPORTIONS :    2, 0.83       3, 0.17
  3522 1412-71-365     71    365.0       1993.    
  3523 1393-38-335     38    335.0       1974.    
  3524 1393-42-349     42    349.0       1957.    
  3525 1393-48-349     48    349.0       1950.    
  3526 1393-55-353     55    353.0       1938.    
  3527 1393-71-365     71    365.0       2034.    
  3528 1376-36-78      36    78.00       1988.    
     MULTIPLE LAYERS AND PROPORTIONS :    2, 0.11       3, 0.89
  3529 1376-48-349     48    349.0       1957.    
     MULTIPLE LAYERS AND PROPORTIONS :    2, 0.11       3, 0.89
  3530 1376-61-21      61    21.00       1921.    
     MULTIPLE LAYERS AND PROPORTIONS :    2, 0.11       3, 0.89
  3531 1376-66-34      66    34.00       1905.    
     MULTIPLE LAYERS AND PROPORTIONS :    2, 0.11       3, 0.89
  3532 1376-71-56      71    56.00       1990.    
     MULTIPLE LAYERS AND PROPORTIONS :    2, 0.11       3, 0.89
  3533 1376-71-365     71    365.0       2019.    
  3534 1361-71-362     71    362.0       1995.    
  3535 1362-71-362     71    362.0       1995.    
  3536 1421-71-362     71    362.0       2025.    
  3537 1403-66-34      66    34.00       1900.    
  3538 1403-71-56      71    56.00       1997.    
  3539 1403-71-365     71    365.0       2031.    
  3540 1388-71-362     71    362.0       2044.    
  3541 1364-17-12      17    12.00       2001.    
  3542 1364-38-335     38    335.0       1980.    
  3543 1364-42-349     42    349.0       1961.    
  3544 1364-55-353     55    353.0       1942.    
  3545 1364-66-34      66    34.00       1904.    
  3546 1364-71-365     71    365.0       2054.    
  3547 1365-17-12      17    12.00       2006.    
     MULTIPLE LAYERS AND PROPORTIONS :    2, 0.72       3, 0.28
  3548 1365-22-6       22    6.000       1999.    
     MULTIPLE LAYERS AND PROPORTIONS :    2, 0.72       3, 0.28
  3549 1365-27-27      27    27.00       1992.    
     MULTIPLE LAYERS AND PROPORTIONS :    2, 0.72       3, 0.28
  3550 1365-32-85      32    85.00       1986.    
     MULTIPLE LAYERS AND PROPORTIONS :    2, 0.72       3, 0.28
  3551 1365-37-17      37    17.00       1983.    
     MULTIPLE LAYERS AND PROPORTIONS :    2, 0.72       3, 0.28
  3552 1365-42-349     42    349.0       1965.    
     MULTIPLE LAYERS AND PROPORTIONS :    2, 0.72       3, 0.28
  3553 1365-48-349     48    349.0       1959.    
     MULTIPLE LAYERS AND PROPORTIONS :    2, 0.72       3, 0.28
  3554 1365-55-353     55    353.0       1948.    
     MULTIPLE LAYERS AND PROPORTIONS :    2, 0.72       3, 0.28
  3555 1365-60-364     60    364.0       1925.    
     MULTIPLE LAYERS AND PROPORTIONS :    2, 0.72       3, 0.28
  3556 1365-66-1       66   1.0000       1907.    
     MULTIPLE LAYERS AND PROPORTIONS :    2, 0.72       3, 0.28
  3557 1365-71-365     71    365.0       2045.    
     MULTIPLE LAYERS AND PROPORTIONS :    2, 0.72       3, 0.28
  3558 1335-71-362     71    362.0       2054.    
  3559 1313-36-114     36    114.0       1987.    
     MULTIPLE LAYERS AND PROPORTIONS :    2, 0.08       3, 0.92
  3560 1313-42-349     42    349.0       1974.    
     MULTIPLE LAYERS AND PROPORTIONS :    2, 0.08       3, 0.92
  3561 1313-48-349     48    349.0       1966.    
     MULTIPLE LAYERS AND PROPORTIONS :    2, 0.08       3, 0.92
  3562 1313-55-353     55    353.0       1953.    
     MULTIPLE LAYERS AND PROPORTIONS :    2, 0.08       3, 0.92
  3563 1313-61-21      61    21.00       1922.    
     MULTIPLE LAYERS AND PROPORTIONS :    2, 0.08       3, 0.92
  3564 1313-66-13      66    13.00       1906.    
     MULTIPLE LAYERS AND PROPORTIONS :    2, 0.08       3, 0.92
  3565 1266-17-12      17    12.00       2022.    
     MULTIPLE LAYERS AND PROPORTIONS :    2, 0.57       3, 0.43
  3566 1266-38-335     38    335.0       2003.    
     MULTIPLE LAYERS AND PROPORTIONS :    2, 0.57       3, 0.43
  3567 1266-42-349     42    349.0       1987.    
     MULTIPLE LAYERS AND PROPORTIONS :    2, 0.57       3, 0.43
  3568 1266-48-349     48    349.0       1980.    
     MULTIPLE LAYERS AND PROPORTIONS :    2, 0.57       3, 0.43
  3569 1266-56-3       56    3.000       1967.    
     MULTIPLE LAYERS AND PROPORTIONS :    2, 0.57       3, 0.43
  3570 1266-61-21      61    21.00       1938.    
     MULTIPLE LAYERS AND PROPORTIONS :    2, 0.57       3, 0.43
  3571 1266-66-12      66    12.00       1922.    
     MULTIPLE LAYERS AND PROPORTIONS :    2, 0.57       3, 0.43
  3572 1266-71-56      71    56.00       2000.    
     MULTIPLE LAYERS AND PROPORTIONS :    2, 0.57       3, 0.43
  3573 1266-71-365     71    365.0       2050.    
  3574 1258-71-362     71    362.0       2050.    
  3575 1265-17-12      17    12.00       2015.    
     MULTIPLE LAYERS AND PROPORTIONS :    2, 0.42       3, 0.58
  3576 1265-38-335     38    335.0       2003.    
     MULTIPLE LAYERS AND PROPORTIONS :    2, 0.42       3, 0.58
  3577 1265-42-349     42    349.0       1982.    
     MULTIPLE LAYERS AND PROPORTIONS :    2, 0.42       3, 0.58
  3578 1265-48-349     48    349.0       1975.    
     MULTIPLE LAYERS AND PROPORTIONS :    2, 0.42       3, 0.58
  3579 1265-55-353     55    353.0       1961.    
     MULTIPLE LAYERS AND PROPORTIONS :    2, 0.42       3, 0.58
  3580 1265-66-34      66    34.00       1917.    
     MULTIPLE LAYERS AND PROPORTIONS :    2, 0.42       3, 0.58
  3581 1265-71-56      71    56.00       1998.    
     MULTIPLE LAYERS AND PROPORTIONS :    2, 0.42       3, 0.58
  3582 1265-71-365     71    365.0       2040.    
     MULTIPLE LAYERS AND PROPORTIONS :    2, 0.42       3, 0.58
  3583 1336-17-12      17    12.00       2021.    
     MULTIPLE LAYERS AND PROPORTIONS :    2, 0.82       3, 0.18
  3584 1336-38-335     38    335.0       1988.    
     MULTIPLE LAYERS AND PROPORTIONS :    2, 0.82       3, 0.18
  3585 1336-42-349     42    349.0       1974.    
     MULTIPLE LAYERS AND PROPORTIONS :    2, 0.82       3, 0.18
  3586 1336-48-349     48    349.0       1965.    
     MULTIPLE LAYERS AND PROPORTIONS :    2, 0.82       3, 0.18
  3587 1336-55-353     55    353.0       1959.    
     MULTIPLE LAYERS AND PROPORTIONS :    2, 0.82       3, 0.18
  3588 1336-71-40      71    40.00       1955.    
     MULTIPLE LAYERS AND PROPORTIONS :    2, 0.82       3, 0.18
  3589 1336-71-365     71    365.0       1999.    
     MULTIPLE LAYERS AND PROPORTIONS :    2, 0.82       3, 0.18
  3590 1337-42-349     42    349.0       1965.    
     MULTIPLE LAYERS AND PROPORTIONS :    2, 0.78       3, 0.22
  3591 1337-55-353     55    353.0       1947.    
     MULTIPLE LAYERS AND PROPORTIONS :    2, 0.78       3, 0.22
  3592 1337-66-27      66    27.00       1901.    
     MULTIPLE LAYERS AND PROPORTIONS :    2, 0.78       3, 0.22
  3593 1337-71-365     71    365.0       2033.    
     MULTIPLE LAYERS AND PROPORTIONS :    2, 0.78       3, 0.22
  3594 1340-36-38      36    38.00       1989.    
     MULTIPLE LAYERS AND PROPORTIONS :    2, 0.09       3, 0.91
  3595 1340-42-349     42    349.0       1969.    
     MULTIPLE LAYERS AND PROPORTIONS :    2, 0.09       3, 0.91
  3596 1340-48-349     48    349.0       1961.    
     MULTIPLE LAYERS AND PROPORTIONS :    2, 0.09       3, 0.91
  3597 1340-55-353     55    353.0       1948.    
     MULTIPLE LAYERS AND PROPORTIONS :    2, 0.09       3, 0.91
  3598 1340-66-10      66   10.000       1902.    
     MULTIPLE LAYERS AND PROPORTIONS :    2, 0.09       3, 0.91
  3599 1340-71-56      71    56.00       2011.    
     MULTIPLE LAYERS AND PROPORTIONS :    2, 0.09       3, 0.91
  3600 1340-71-365     71    365.0       2033.    
     MULTIPLE LAYERS AND PROPORTIONS :    2, 0.09       3, 0.91
  3601 1264-38-335     38    335.0       2000.    
     MULTIPLE LAYERS AND PROPORTIONS :    2, 0.41       3, 0.59
  3602 1264-42-349     42    349.0       1981.    
     MULTIPLE LAYERS AND PROPORTIONS :    2, 0.41       3, 0.59
  3603 1264-71-70      71    70.00       1982.    
     MULTIPLE LAYERS AND PROPORTIONS :    2, 0.41       3, 0.59
  3604 1264-71-365     71    365.0       2018.    
     MULTIPLE LAYERS AND PROPORTIONS :    2, 0.41       3, 0.59
  3605 1257-66-33      66    33.00       1916.    
  3606 1257-71-56      71    56.00       1959.    
  3607 1257-71-365     71    365.0       1994.    
  3608 1371-56-31      56    31.00       1966.    
  3609 1371-66-56      66    56.00       1937.    
  3610 1371-71-50      71    50.00       1934.    
  3611 1371-71-365     71    365.0       1940.    
  3612 1370-34-198     34    198.0       2015.    
  3613 1370-56-31      56    31.00       1974.    
  3614 1370-66-56      66    56.00       1951.    
  3615 1370-71-50      71    50.00       1943.    
  3616 1370-71-365     71    365.0       1945.    
  3617 1849-12-32      12    32.00       2295.    
     MULTIPLE LAYERS AND PROPORTIONS :    1, 0.73       2, 0.27
  3618 1849-17-34      17    34.00       2282.    
     MULTIPLE LAYERS AND PROPORTIONS :    1, 0.73       2, 0.27
  3619 1849-22-1       22   1.0000       2276.    
     MULTIPLE LAYERS AND PROPORTIONS :    1, 0.73       2, 0.27
  3620 1847-48-362     48    362.0       2218.    
  3621 1847-56-34      56    34.00       2197.    
  3622 1847-61-3       61    3.000       2185.    
  3623 1847-66-1       66   1.0000       2178.    
  3624 1847-71-56      71    56.00       2177.    
  3625 1847-71-365     71    365.0       2179.    
  3626 1742-1-365       1    365.0       2295.    
 Observation within a steady-state time step has been moved to the end of the time step.
  3627 1741-1-365       1    365.0       2294.    
 Observation within a steady-state time step has been moved to the end of the time step.
  3628 1766-1-365       1    365.0       2333.    
 Observation within a steady-state time step has been moved to the end of the time step.
  3629 1848-56-34      56    34.00       2194.    
  3630 1848-65-336     65    336.0       2176.    
  3631 1848-71-365     71    365.0       2172.    
  3632 1901-2-36        2    36.00       2292.    
  3633 1912-1-365       1    365.0       2284.    
 Observation within a steady-state time step has been moved to the end of the time step.
  3634 1929-1-365       1    365.0       2283.    
 Observation within a steady-state time step has been moved to the end of the time step.
  3635 1902-1-365       1    365.0       2282.    
 Observation within a steady-state time step has been moved to the end of the time step.
  3636 1872-71-68      71    68.00       2168.    
  3637 1872-71-365     71    365.0       2169.    
  3638 1871-56-34      56    34.00       2185.    
  3639 1832-17-37      17    37.00       2250.    
  3640 1832-22-1       22   1.0000       2238.    
  3641 1832-32-49      32    49.00       2224.    
  3642 1832-42-362     42    362.0       2198.    
  3643 1832-48-362     48    362.0       2207.    
  3644 1832-56-34      56    34.00       2189.    
  3645 1832-61-3       61    3.000       2179.    
  3646 1832-71-21      71    21.00       2168.    
  3647 1832-71-365     71    365.0       2168.    
  3648 1767-27-40      27    40.00       2263.    
     MULTIPLE LAYERS AND PROPORTIONS :    2, 0.62       3, 0.38
  3649 1767-42-363     42    363.0       2207.    
     MULTIPLE LAYERS AND PROPORTIONS :    2, 0.62       3, 0.38
  3650 1767-56-34      56    34.00       2199.    
     MULTIPLE LAYERS AND PROPORTIONS :    2, 0.62       3, 0.38
  3651 1818-65-336     65    336.0       2171.    
  3652 1804-71-76      71    76.00       2169.    
  3653 1804-71-365     71    365.0       2168.    
  3654 1793-42-362     42    362.0       2203.    
     MULTIPLE LAYERS AND PROPORTIONS :    1, 0.16       2, 0.84
  3655 1793-48-334     48    334.0       2211.    
     MULTIPLE LAYERS AND PROPORTIONS :    1, 0.16       2, 0.84
  3656 1793-56-34      56    34.00       2196.    
     MULTIPLE LAYERS AND PROPORTIONS :    1, 0.16       2, 0.84
  3657 1793-65-336     65    336.0       2179.    
     MULTIPLE LAYERS AND PROPORTIONS :    1, 0.16       2, 0.84
  3658 1793-71-21      71    21.00       2174.    
     MULTIPLE LAYERS AND PROPORTIONS :    1, 0.16       2, 0.84
  3659 1793-71-365     71    365.0       2173.    
     MULTIPLE LAYERS AND PROPORTIONS :    1, 0.16       2, 0.84
  3660 1891-1-365       1    365.0       2278.    
 Observation within a steady-state time step has been moved to the end of the time step.
  3661 1891-11-38      11    38.00       2260.    
  3662 1891-17-37      17    37.00       2237.    
  3663 1690-32-32      32    32.00       2242.    
  3664 1690-34-32      34    32.00       2237.    
  3665 1690-42-362     42    362.0       2216.    
  3666 1690-48-362     48    362.0       2222.    
  3667 1690-56-34      56    34.00       2207.    
  3668 1690-61-3       61    3.000       2187.    
  3669 1690-71-21      71    21.00       2185.    
  3670 1690-71-365     71    365.0       2186.    
  3671 1697-56-34      56    34.00       2201.    
  3672 1697-65-336     65    336.0       2184.    
  3673 1697-71-21      71    21.00       2181.    
  3674 1697-71-365     71    365.0       2181.    
  3675 1638-22-30      22    30.00       2262.    
  3676 1638-27-48      27    48.00       2252.    
  3677 1638-32-49      32    49.00       2248.    
  3678 1638-37-49      37    49.00       2231.    
  3679 1638-42-363     42    363.0       2220.    
  3680 1642-1-365       1    365.0       2316.    
 Observation within a steady-state time step has been moved to the end of the time step.
  3681 1642-8-48        8    48.00       2310.    
  3682 1626-1-365       1    365.0       2317.    
 Observation within a steady-state time step has been moved to the end of the time step.
  3683 1625-26-349     26    349.0       2281.    
     MULTIPLE LAYERS AND PROPORTIONS :    1, 0.28       2, 0.72
  3684 1625-32-49      32    49.00       2274.    
     MULTIPLE LAYERS AND PROPORTIONS :    1, 0.28       2, 0.72
  3685 1625-42-362     42    362.0       2244.    
     MULTIPLE LAYERS AND PROPORTIONS :    1, 0.28       2, 0.72
  3686 1625-48-362     48    362.0       2241.    
     MULTIPLE LAYERS AND PROPORTIONS :    1, 0.28       2, 0.72
  3687 1625-56-34      56    34.00       2226.    
     MULTIPLE LAYERS AND PROPORTIONS :    1, 0.28       2, 0.72
  3688 1625-61-3       61    3.000       2218.    
     MULTIPLE LAYERS AND PROPORTIONS :    1, 0.28       2, 0.72
  3689 1508-12-54      12    54.00       2335.    
     MULTIPLE LAYERS AND PROPORTIONS :    1, 0.89       2, 0.11
  3690 1508-17-33      17    33.00       2334.    
     MULTIPLE LAYERS AND PROPORTIONS :    1, 0.89       2, 0.11
  3691 1508-22-26      22    26.00       2330.    
     MULTIPLE LAYERS AND PROPORTIONS :    1, 0.89       2, 0.11
  3692 1508-27-15      27    15.00       2332.    
     MULTIPLE LAYERS AND PROPORTIONS :    1, 0.89       2, 0.11
  3693 1508-32-49      32    49.00       2321.    
     MULTIPLE LAYERS AND PROPORTIONS :    1, 0.89       2, 0.11
  3694 1508-43-5       43    5.000       2280.    
     MULTIPLE LAYERS AND PROPORTIONS :    1, 0.89       2, 0.11
  3695 1508-48-364     48    364.0       2290.    
     MULTIPLE LAYERS AND PROPORTIONS :    1, 0.89       2, 0.11
  3696 1508-56-34      56    34.00       2275.    
     MULTIPLE LAYERS AND PROPORTIONS :    1, 0.89       2, 0.11
  3697 1508-61-3       61    3.000       2245.    
     MULTIPLE LAYERS AND PROPORTIONS :    1, 0.89       2, 0.11
  3698 1508-71-49      71    49.00       2245.    
     MULTIPLE LAYERS AND PROPORTIONS :    1, 0.89       2, 0.11
  3699 1508-71-365     71    365.0       2249.    
     MULTIPLE LAYERS AND PROPORTIONS :    1, 0.89       2, 0.11
  3700 1479-43-5       43    5.000       2283.    
     MULTIPLE LAYERS AND PROPORTIONS :    1, 0.65       2, 0.35
  3701 1479-48-364     48    364.0       2295.    
     MULTIPLE LAYERS AND PROPORTIONS :    1, 0.65       2, 0.35
  3702 1479-56-34      56    34.00       2280.    
     MULTIPLE LAYERS AND PROPORTIONS :    1, 0.65       2, 0.35
  3703 1479-60-363     60    363.0       2247.    
     MULTIPLE LAYERS AND PROPORTIONS :    1, 0.65       2, 0.35
  3704 1479-71-70      71    70.00       2249.    
     MULTIPLE LAYERS AND PROPORTIONS :    1, 0.65       2, 0.35
  3705 1479-71-365     71    365.0       2251.    
     MULTIPLE LAYERS AND PROPORTIONS :    1, 0.65       2, 0.35
  3706 1462-42-364     42    364.0       2289.    
  3707 1462-48-334     48    334.0       2293.    
  3708 1462-56-16      56    16.00       2279.    
  3709 1468-1-365       1    365.0       2357.    
 Observation within a steady-state time step has been moved to the end of the time step.
  3710 1471-11-278     11    278.0       2346.    
     MULTIPLE LAYERS AND PROPORTIONS :    1, 0.57       2, 0.43
  3711 1471-17-33      17    33.00       2344.    
     MULTIPLE LAYERS AND PROPORTIONS :    1, 0.57       2, 0.43
  3712 1471-22-26      22    26.00       2339.    
     MULTIPLE LAYERS AND PROPORTIONS :    1, 0.57       2, 0.43
  3713 1471-26-349     26    349.0       2333.    
     MULTIPLE LAYERS AND PROPORTIONS :    1, 0.57       2, 0.43
  3714 1471-43-5       43    5.000       2284.    
     MULTIPLE LAYERS AND PROPORTIONS :    1, 0.57       2, 0.43
  3715 1471-48-364     48    364.0       2296.    
  3716 1471-65-336     65    336.0       2241.    
     MULTIPLE LAYERS AND PROPORTIONS :    1, 0.57       2, 0.43
  3717 1471-71-70      71    70.00       2248.    
     MULTIPLE LAYERS AND PROPORTIONS :    1, 0.57       2, 0.43
  3718 1471-71-365     71    365.0       2250.    
     MULTIPLE LAYERS AND PROPORTIONS :    1, 0.57       2, 0.43
  3719 1461-12-54      12    54.00       2348.    
     MULTIPLE LAYERS AND PROPORTIONS :    2, 0.50       3, 0.50
  3720 1461-17-44      17    44.00       2340.    
     MULTIPLE LAYERS AND PROPORTIONS :    2, 0.50       3, 0.50
  3721 1461-22-30      22    30.00       2330.    
     MULTIPLE LAYERS AND PROPORTIONS :    2, 0.50       3, 0.50
  3722 1461-27-59      27    59.00       2319.    
     MULTIPLE LAYERS AND PROPORTIONS :    2, 0.50       3, 0.50
  3723 1461-42-363     42    363.0       2295.    
     MULTIPLE LAYERS AND PROPORTIONS :    2, 0.50       3, 0.50
  3724 1461-48-336     48    336.0       2311.    
     MULTIPLE LAYERS AND PROPORTIONS :    2, 0.50       3, 0.50
  3725 1461-56-34      56    34.00       2299.    
     MULTIPLE LAYERS AND PROPORTIONS :    2, 0.50       3, 0.50
  3726 1461-60-363     60    363.0       2271.    
     MULTIPLE LAYERS AND PROPORTIONS :    2, 0.50       3, 0.50
  3727 1461-66-59      66    59.00       2274.    
     MULTIPLE LAYERS AND PROPORTIONS :    2, 0.50       3, 0.50
  3728 1461-71-70      71    70.00       2283.    
     MULTIPLE LAYERS AND PROPORTIONS :    2, 0.50       3, 0.50
  3729 1461-71-365     71    365.0       2287.    
     MULTIPLE LAYERS AND PROPORTIONS :    2, 0.50       3, 0.50
  3730 1387-42-362     42    362.0       2292.    
     MULTIPLE LAYERS AND PROPORTIONS :    2, 0.46       3, 0.54
  3731 1387-49-2       49    2.000       2310.    
     MULTIPLE LAYERS AND PROPORTIONS :    2, 0.46       3, 0.54
  3732 1387-56-33      56    33.00       2280.    
     MULTIPLE LAYERS AND PROPORTIONS :    2, 0.46       3, 0.54
  3733 1387-60-363     60    363.0       2244.    
     MULTIPLE LAYERS AND PROPORTIONS :    2, 0.46       3, 0.54
  3734 1387-66-59      66    59.00       2240.    
     MULTIPLE LAYERS AND PROPORTIONS :    2, 0.46       3, 0.54
  3735 1387-71-70      71    70.00       2252.    
     MULTIPLE LAYERS AND PROPORTIONS :    2, 0.46       3, 0.54
  3736 1387-71-365     71    365.0       2256.    
     MULTIPLE LAYERS AND PROPORTIONS :    2, 0.46       3, 0.54
  3737 1391-17-41      17    41.00       2368.    
     MULTIPLE LAYERS AND PROPORTIONS :    1, 0.42       2, 0.45       3, 0.13
  3738 1391-22-31      22    31.00       2358.    
     MULTIPLE LAYERS AND PROPORTIONS :    1, 0.42       2, 0.45       3, 0.13
  3739 1391-42-362     42    362.0       2310.    
     MULTIPLE LAYERS AND PROPORTIONS :    2, 0.87       3, 0.13
  3740 1391-48-338     48    338.0       2314.    
     MULTIPLE LAYERS AND PROPORTIONS :    2, 0.87       3, 0.13
  3741 1391-56-16      56    16.00       2281.    
     MULTIPLE LAYERS AND PROPORTIONS :    2, 0.87       3, 0.13
  3742 1391-61-59      61    59.00       2260.    
     MULTIPLE LAYERS AND PROPORTIONS :    2, 0.87       3, 0.13
  3743 1391-66-27      66    27.00       2277.    
     MULTIPLE LAYERS AND PROPORTIONS :    2, 0.87       3, 0.13
  3744 1391-71-56      71    56.00       2263.    
     MULTIPLE LAYERS AND PROPORTIONS :    2, 0.87       3, 0.13
  3745 1386-17-41      17    41.00       2369.    
     MULTIPLE LAYERS AND PROPORTIONS :    1, 0.37       2, 0.49       3, 0.14
  3746 1386-22-31      22    31.00       2358.    
     MULTIPLE LAYERS AND PROPORTIONS :    1, 0.37       2, 0.49       3, 0.14
  3747 1386-42-362     42    362.0       2292.    
     MULTIPLE LAYERS AND PROPORTIONS :    2, 0.86       3, 0.14
  3748 1386-48-337     48    337.0       2298.    
     MULTIPLE LAYERS AND PROPORTIONS :    2, 0.86       3, 0.14
  3749 1386-56-16      56    16.00       2296.    
     MULTIPLE LAYERS AND PROPORTIONS :    2, 0.86       3, 0.14
  3750 1398-48-335     48    335.0       2302.    
     MULTIPLE LAYERS AND PROPORTIONS :    2, 0.45       3, 0.55
  3751 1401-2-1         2   1.0000       2373.    
  3752 1401-12-53      12    53.00       2358.    
  3753 1401-17-60      17    60.00       2362.    
  3754 1401-22-26      22    26.00       2353.    
  3755 1427-17-39      17    39.00       2358.    
  3756 1427-22-31      22    31.00       2350.    
  3757 1427-42-362     42    362.0       2293.    
  3758 1427-48-364     48    364.0       2305.    
  3759 1427-56-33      56    33.00       2285.    
  3760 1378-42-364     42    364.0       2285.    
  3761 1400-1-32        1    32.00       2376.    
 Observation within a steady-state time step has been moved to the end of the time step.
  3762 1400-12-53      12    53.00       2361.    
  3763 1400-17-60      17    60.00       2364.    
  3764 1400-22-26      22    26.00       2355.    
  3765 1400-27-48      27    48.00       2349.    
  3766 1400-36-3       36    3.000       2310.    
  3767 1400-43-5       43    5.000       2292.    
  3768 1400-48-364     48    364.0       2307.    
  3769 1400-56-33      56    33.00       2284.    
  3770 1400-60-363     60    363.0       2248.    
  3771 1400-71-365     71    365.0       2259.    
  3772 1405-7-308       7    308.0       2360.    
  3773 1405-10-34      10    34.00       2359.    
  3774 1405-43-5       43    5.000       2287.    
  3775 1405-48-364     48    364.0       2301.    
  3776 1405-56-33      56    33.00       2278.    
  3777 1405-66-13      66    13.00       2235.    
  3778 1405-71-365     71    365.0       2252.    
  3779 1349-17-41      17    41.00       2357.    
     MULTIPLE LAYERS AND PROPORTIONS :    1, 0.15       2, 0.85
  3780 1349-22-30      22    30.00       2345.    
     MULTIPLE LAYERS AND PROPORTIONS :    1, 0.15       2, 0.85
  3781 1329-1-274       1    274.0       2381.    
 Observation within a steady-state time step has been moved to the end of the time step.
  3782 1329-17-41      17    41.00       2368.    
  3783 1329-22-31      22    31.00       2357.    
  3784 1329-42-364     42    364.0       2285.    
  3785 1329-56-16      56    16.00       2275.    
  3786 1329-66-26      66    26.00       2245.    
  3787 1282-1-277       1    277.0       2407.    
 Observation within a steady-state time step has been moved to the end of the time step.
  3788 1283-1-309       1    309.0       2387.    
 Observation within a steady-state time step has been moved to the end of the time step.
  3789 1283-6-340       6    340.0       2379.    
  3790 1283-11-350     11    350.0       2372.    
  3791 1283-16-301     16    301.0       2369.    
  3792 1283-22-30      22    30.00       2361.    
  3793 1283-27-10      27   10.000       2352.    
  3794 1283-35-345     35    345.0       2312.    
  3795 1274-6-288       6    288.0       2376.    
  3796 1274-12-54      12    54.00       2369.    
  3797 1274-17-41      17    41.00       2373.    
  3798 1274-22-30      22    30.00       2360.    
  3799 1356-43-1       43   1.0000       2285.    
     MULTIPLE LAYERS AND PROPORTIONS :    2, 0.71       3, 0.29
  3800 1347-66-49      66    49.00       2241.    
  3801 1345-55-350     55    350.0       2281.    
     MULTIPLE LAYERS AND PROPORTIONS :    2, 0.74       3, 0.26
  3802 1345-61-33      61    33.00       2244.    
     MULTIPLE LAYERS AND PROPORTIONS :    2, 0.74       3, 0.26
  3803 1345-66-49      66    49.00       2241.    
     MULTIPLE LAYERS AND PROPORTIONS :    2, 0.74       3, 0.26
  3804 1345-71-68      71    68.00       2252.    
     MULTIPLE LAYERS AND PROPORTIONS :    2, 0.74       3, 0.26
  3805 1345-71-365     71    365.0       2257.    
  3806 1321-12-57      12    57.00       2369.    
  3807 1321-17-41      17    41.00       2374.    
  3808 1321-22-27      22    27.00       2361.    
  3809 1321-27-51      27    51.00       2354.    
  3810 1360-56-34      56    34.00       2271.    
     MULTIPLE LAYERS AND PROPORTIONS :    2, 0.64       3, 0.36
  3811 1360-60-362     60    362.0       2240.    
     MULTIPLE LAYERS AND PROPORTIONS :    2, 0.64       3, 0.36
  3812 1360-65-348     65    348.0       2229.    
     MULTIPLE LAYERS AND PROPORTIONS :    2, 0.64       3, 0.36
  3813 1360-71-48      71    48.00       2243.    
     MULTIPLE LAYERS AND PROPORTIONS :    2, 0.64       3, 0.36
  3814 1360-71-365     71    365.0       2248.    
     MULTIPLE LAYERS AND PROPORTIONS :    2, 0.64       3, 0.36
  3815 1328-1-277       1    277.0       2386.    
 Observation within a steady-state time step has been moved to the end of the time step.
  3816 1328-6-295       6    295.0       2377.    
  3817 1306-11-41      11    41.00       2364.    
     MULTIPLE LAYERS AND PROPORTIONS :    1, 0.31       2, 0.69
  3818 1306-17-41      17    41.00       2368.    
     MULTIPLE LAYERS AND PROPORTIONS :    1, 0.31       2, 0.69
  3819 1306-22-27      22    27.00       2356.    
     MULTIPLE LAYERS AND PROPORTIONS :    1, 0.31       2, 0.69
  3820 1306-43-5       43    5.000       2286.    
  3821 1306-48-364     48    364.0       2304.    
  3822 1306-56-33      56    33.00       2272.    
  3823 1306-60-363     60    363.0       2238.    
  3824 1306-66-6       66    6.000       2234.    
     MULTIPLE LAYERS AND PROPORTIONS :    1, 0.31       2, 0.69
  3825 1306-71-60      71    60.00       2246.    
     MULTIPLE LAYERS AND PROPORTIONS :    1, 0.31       2, 0.69
  3826 1306-71-365     71    365.0       2252.    
     MULTIPLE LAYERS AND PROPORTIONS :    1, 0.31       2, 0.69
  3827 1307-1-274       1    274.0       2386.    
 Observation within a steady-state time step has been moved to the end of the time step.
  3828 1307-11-41      11    41.00       2369.    
  3829 1307-17-41      17    41.00       2375.    
  3830 1307-22-27      22    27.00       2362.    
  3831 1307-26-349     26    349.0       2350.    
  3832 1307-48-364     48    364.0       2309.    
  3833 1307-56-33      56    33.00       2279.    
  3834 1307-71-60      71    60.00       2253.    
  3835 1307-71-365     71    365.0       2258.    
  3836 1304-1-274       1    274.0       2381.    
 Observation within a steady-state time step has been moved to the end of the time step.
  3837 1304-11-41      11    41.00       2365.    
  3838 1304-17-32      17    32.00       2370.    
  3839 1304-22-27      22    27.00       2354.    
  3840 1304-26-302     26    302.0       2340.    
  3841 1304-48-364     48    364.0       2301.    
  3842 1304-56-33      56    33.00       2270.    
  3843 1304-60-356     60    356.0       2235.    
  3844 1304-71-60      71    60.00       2244.    
  3845 1281-12-54      12    54.00       2373.    
  3846 1281-17-41      17    41.00       2377.    
  3847 1281-22-30      22    30.00       2365.    
  3848 1281-32-50      32    50.00       2343.    
  3849 1281-37-49      37    49.00       2314.    
  3850 1292-1-274       1    274.0       2389.    
 Observation within a steady-state time step has been moved to the end of the time step.
  3851 1292-17-46      17    46.00       2376.    
  3852 1292-22-27      22    27.00       2363.    
  3853 1292-26-349     26    349.0       2351.    
  3854 1292-43-5       43    5.000       2291.    
  3855 1292-48-364     48    364.0       2311.    
  3856 1272-1-60        1    60.00       2392.    
 Observation within a steady-state time step has been moved to the end of the time step.
  3857 1272-7-176       7    176.0       2374.    
  3858 1272-60-363     60    363.0       2245.    
  3859 1272-65-348     65    348.0       2241.    
  3860 1272-71-365     71    365.0       2258.    
  3861 1298-42-362     42    362.0       2292.    
     MULTIPLE LAYERS AND PROPORTIONS :    2, 0.43       3, 0.57
  3862 1298-56-10      56   10.000       2279.    
     MULTIPLE LAYERS AND PROPORTIONS :    2, 0.43       3, 0.57
  3863 1298-60-363     60    363.0       2244.    
     MULTIPLE LAYERS AND PROPORTIONS :    2, 0.43       3, 0.57
  3864 1298-66-13      66    13.00       2240.    
     MULTIPLE LAYERS AND PROPORTIONS :    2, 0.43       3, 0.57
  3865 1298-71-365     71    365.0       2257.    
     MULTIPLE LAYERS AND PROPORTIONS :    2, 0.43       3, 0.57
  3866 1299-56-10      56   10.000       2280.    
  3867 1299-66-13      66    13.00       2240.    
  3868 1299-71-365     71    365.0       2255.    
  3869 1294-43-5       43    5.000       2283.    
  3870 1294-48-364     48    364.0       2302.    
  3871 1294-56-10      56   10.000       2272.    
  3872 1294-60-363     60    363.0       2237.    
  3873 1294-66-13      66    13.00       2233.    
     MULTIPLE LAYERS AND PROPORTIONS :    1, 0.30       2, 0.70
  3874 1294-71-365     71    365.0       2251.    
     MULTIPLE LAYERS AND PROPORTIONS :    1, 0.30       2, 0.70
  3875 1296-71-60      71    60.00       2249.    
     MULTIPLE LAYERS AND PROPORTIONS :    2, 0.15       3, 0.85
  3876 1288-56-10      56   10.000       2281.    
  3877 1288-66-13      66    13.00       2242.    
  3878 1288-71-41      71    41.00       2251.    
  3879 1288-71-365     71    365.0       2257.    
  3880 1285-60-361     60    361.0       2244.    
     MULTIPLE LAYERS AND PROPORTIONS :    2, 0.38       3, 0.62
  3881 1285-71-365     71    365.0       2257.    
     MULTIPLE LAYERS AND PROPORTIONS :    2, 0.38       3, 0.62
  3882 1291-60-361     60    361.0       2243.    
     MULTIPLE LAYERS AND PROPORTIONS :    2, 0.39       3, 0.61
  3883 1291-71-365     71    365.0       2257.    
     MULTIPLE LAYERS AND PROPORTIONS :    2, 0.39       3, 0.61
  3884 1287-60-361     60    361.0       2245.    
     MULTIPLE LAYERS AND PROPORTIONS :    2, 0.39       3, 0.61
  3885 1287-71-365     71    365.0       2258.    
     MULTIPLE LAYERS AND PROPORTIONS :    2, 0.39       3, 0.61
  3886 1342-71-62      71    62.00       2342.    
     MULTIPLE LAYERS AND PROPORTIONS :    1, 0.62       2, 0.38
  3887 1342-71-365     71    365.0       2341.    
     MULTIPLE LAYERS AND PROPORTIONS :    1, 0.62       2, 0.38
  3888 1346-11-40      11    40.00       2376.    
  3889 1346-17-44      17    44.00       2376.    
  3890 1346-22-27      22    27.00       2364.    
  3891 1346-27-59      27    59.00       2357.    
  3892 1346-32-50      32    50.00       2357.    
  3893 1346-42-362     42    362.0       2298.    
  3894 1346-48-357     48    357.0       2313.    
  3895 1346-56-32      56    32.00       2285.    
  3896 1346-60-363     60    363.0       2302.    
  3897 1346-71-62      71    62.00       2262.    
  3898 1346-71-365     71    365.0       2268.    
  3899 1351-71-62      71    62.00       2310.    
  3900 1351-71-365     71    365.0       2310.    
  3901 1305-12-57      12    57.00       2382.    
  3902 1305-17-46      17    46.00       2384.    
  3903 1305-22-27      22    27.00       2366.    
  3904 1305-42-362     42    362.0       2294.    
  3905 1305-48-357     48    357.0       2312.    
  3906 1305-55-357     55    357.0       2285.    
  3907 1305-60-342     60    342.0       2251.    
  3908 1305-66-59      66    59.00       2248.    
  3909 1305-71-20      71    20.00       2255.    
  3910 1305-71-365     71    365.0       2261.    
  3911 1286-1-91        1    91.00       2419.    
 Observation within a steady-state time step has been moved to the end of the time step.
  3912 1284-60-361     60    361.0       2246.    
     MULTIPLE LAYERS AND PROPORTIONS :    2, 0.53       3, 0.47
  3913 1284-65-356     65    356.0       2240.    
     MULTIPLE LAYERS AND PROPORTIONS :    2, 0.53       3, 0.47
  3914 1284-71-365     71    365.0       2258.    
     MULTIPLE LAYERS AND PROPORTIONS :    2, 0.53       3, 0.47
  3915 1271-42-362     42    362.0       2294.    
     MULTIPLE LAYERS AND PROPORTIONS :    2, 0.43       3, 0.57
  3916 1271-56-10      56   10.000       2284.    
     MULTIPLE LAYERS AND PROPORTIONS :    2, 0.43       3, 0.57
  3917 1271-60-363     60    363.0       2250.    
     MULTIPLE LAYERS AND PROPORTIONS :    2, 0.43       3, 0.57
  3918 1271-66-13      66    13.00       2244.    
     MULTIPLE LAYERS AND PROPORTIONS :    1, 0.22       2, 0.21       3, 0.57
  3919 1271-71-62      71    62.00       2255.    
     MULTIPLE LAYERS AND PROPORTIONS :    1, 0.22       2, 0.21       3, 0.57
  3920 1271-71-365     71    365.0       2259.    
     MULTIPLE LAYERS AND PROPORTIONS :    1, 0.22       2, 0.21       3, 0.57
  3921 1293-56-10      56   10.000       2282.    
  3922 1293-66-13      66    13.00       2243.    
  3923 1293-71-47      71    47.00       2251.    
  3924 1293-71-365     71    365.0       2257.    
  3925 1898-10-252     10    252.0       2397.    
  3926 1873-10-252     10    252.0       2394.    
  3927 1763-10-252     10    252.0       2409.    
  3928 1762-7-161       7    161.0       2417.    
     MULTIPLE LAYERS AND PROPORTIONS :    1, 0.89       2, 0.11
  3929 1762-22-60      22    60.00       2383.    
     MULTIPLE LAYERS AND PROPORTIONS :    1, 0.89       2, 0.11
  3930 1776-42-355     42    355.0       2284.    
     MULTIPLE LAYERS AND PROPORTIONS :    1, 0.57       2, 0.43
  3931 1776-56-27      56    27.00       2238.    
     MULTIPLE LAYERS AND PROPORTIONS :    1, 0.57       2, 0.43
  3932 1776-66-54      66    54.00       2214.    
     MULTIPLE LAYERS AND PROPORTIONS :    1, 0.57       2, 0.43
  3933 1776-71-64      71    64.00       2224.    
     MULTIPLE LAYERS AND PROPORTIONS :    1, 0.57       2, 0.43
  3934 1776-71-365     71    365.0       2228.    
     MULTIPLE LAYERS AND PROPORTIONS :    1, 0.57       2, 0.43
  3935 1775-42-355     42    355.0       2284.    
  3936 1775-56-27      56    27.00       2239.    
  3937 1775-66-54      66    54.00       2213.    
  3938 1775-71-64      71    64.00       2224.    
  3939 1775-71-365     71    365.0       2228.    
  3940 1905-10-252     10    252.0       2395.    
  3941 1875-10-252     10    252.0       2391.    
  3942 1877-22-79      22    79.00       2360.    
  3943 1877-42-356     42    356.0       2273.    
  3944 1877-48-355     48    355.0       2238.    
  3945 1877-66-59      66    59.00       2185.    
  3946 1877-71-64      71    64.00       2205.    
  3947 1877-71-365     71    365.0       2210.    
  3948 1878-42-356     42    356.0       2273.    
  3949 1878-48-356     48    356.0       2239.    
  3950 1878-56-10      56   10.000       2207.    
  3951 1878-61-26      61    26.00       2176.    
  3952 1878-66-59      66    59.00       2186.    
  3953 1878-71-64      71    64.00       2207.    
  3954 1878-71-365     71    365.0       2211.    
  3955 1926-42-363     42    363.0       2274.    
  3956 1886-22-79      22    79.00       2353.    
  3957 1886-26-349     26    349.0       2341.    
  3958 1886-42-362     42    362.0       2271.    
  3959 1886-48-357     48    357.0       2237.    
  3960 1886-56-24      56    24.00       2201.    
  3961 1886-66-1       66   1.0000       2173.    
  3962 1886-71-62      71    62.00       2198.    
  3963 1886-71-365     71    365.0       2203.    
  3964 1852-10-255     10    255.0       2390.    
  3965 1822-10-255     10    255.0       2384.    
  3966 1786-66-19      66    19.00       2167.    
  3967 1786-71-33      71    33.00       2188.    
  3968 1786-71-365     71    365.0       2192.    
  3969 1851-10-252     10    252.0       2391.    
  3970 1791-12-116     12    116.0       2390.    
     MULTIPLE LAYERS AND PROPORTIONS :    1, 0.28       2, 0.72
  3971 1791-22-79      22    79.00       2356.    
     MULTIPLE LAYERS AND PROPORTIONS :    1, 0.28       2, 0.72
  3972 1791-26-294     26    294.0       2344.    
     MULTIPLE LAYERS AND PROPORTIONS :    1, 0.28       2, 0.72
  3973 1791-42-356     42    356.0       2270.    
     MULTIPLE LAYERS AND PROPORTIONS :    1, 0.28       2, 0.72
  3974 1791-48-356     48    356.0       2235.    
     MULTIPLE LAYERS AND PROPORTIONS :    1, 0.28       2, 0.72
  3975 1791-66-56      66    56.00       2187.    
     MULTIPLE LAYERS AND PROPORTIONS :    1, 0.28       2, 0.72
  3976 1791-71-33      71    33.00       2203.    
     MULTIPLE LAYERS AND PROPORTIONS :    1, 0.28       2, 0.72
  3977 1791-71-365     71    365.0       2208.    
     MULTIPLE LAYERS AND PROPORTIONS :    1, 0.28       2, 0.72
  3978 1785-42-356     42    356.0       2271.    
     MULTIPLE LAYERS AND PROPORTIONS :    1, 0.24       2, 0.76
  3979 1785-48-356     48    356.0       2235.    
     MULTIPLE LAYERS AND PROPORTIONS :    1, 0.24       2, 0.76
  3980 1785-56-10      56   10.000       2212.    
     MULTIPLE LAYERS AND PROPORTIONS :    1, 0.24       2, 0.76
  3981 1785-61-26      61    26.00       2173.    
     MULTIPLE LAYERS AND PROPORTIONS :    1, 0.24       2, 0.76
  3982 1785-66-56      66    56.00       2186.    
     MULTIPLE LAYERS AND PROPORTIONS :    1, 0.24       2, 0.76
  3983 1785-71-33      71    33.00       2203.    
     MULTIPLE LAYERS AND PROPORTIONS :    1, 0.24       2, 0.76
  3984 1785-71-365     71    365.0       2208.    
     MULTIPLE LAYERS AND PROPORTIONS :    1, 0.24       2, 0.76
  3985 1928-10-256     10    256.0       2381.    
  3986 1879-12-111     12    111.0       2376.    
     MULTIPLE LAYERS AND PROPORTIONS :    1, 0.20       2, 0.80
  3987 1879-22-79      22    79.00       2350.    
     MULTIPLE LAYERS AND PROPORTIONS :    1, 0.20       2, 0.80
  3988 1879-42-362     42    362.0       2268.    
     MULTIPLE LAYERS AND PROPORTIONS :    1, 0.20       2, 0.80
  3989 1879-48-357     48    357.0       2235.    
     MULTIPLE LAYERS AND PROPORTIONS :    1, 0.20       2, 0.80
  3990 1879-55-353     55    353.0       2199.    
     MULTIPLE LAYERS AND PROPORTIONS :    1, 0.20       2, 0.80
  3991 1879-60-313     60    313.0       2201.    
     MULTIPLE LAYERS AND PROPORTIONS :    1, 0.20       2, 0.80
  3992 1879-71-49      71    49.00       2192.    
     MULTIPLE LAYERS AND PROPORTIONS :    1, 0.20       2, 0.80
  3993 1879-71-365     71    365.0       2198.    
     MULTIPLE LAYERS AND PROPORTIONS :    1, 0.20       2, 0.80
  3994 1824-10-256     10    256.0       2376.    
  3995 1811-7-156       7    156.0       2379.    
     MULTIPLE LAYERS AND PROPORTIONS :    1, 0.33       2, 0.67
  3996 1811-22-79      22    79.00       2341.    
     MULTIPLE LAYERS AND PROPORTIONS :    1, 0.33       2, 0.67
  3997 1811-32-32      32    32.00       2314.    
     MULTIPLE LAYERS AND PROPORTIONS :    1, 0.33       2, 0.67
  3998 1811-48-357     48    357.0       2232.    
     MULTIPLE LAYERS AND PROPORTIONS :    1, 0.33       2, 0.67
  3999 1811-55-354     55    354.0       2190.    
     MULTIPLE LAYERS AND PROPORTIONS :    1, 0.33       2, 0.67
  4000 1811-60-349     60    349.0       2149.    
     MULTIPLE LAYERS AND PROPORTIONS :    1, 0.33       2, 0.67
  4001 1811-65-355     65    355.0       2161.    
     MULTIPLE LAYERS AND PROPORTIONS :    1, 0.33       2, 0.67
  4002 1811-71-68      71    68.00       2187.    
     MULTIPLE LAYERS AND PROPORTIONS :    1, 0.33       2, 0.67
  4003 1811-71-365     71    365.0       2193.    
     MULTIPLE LAYERS AND PROPORTIONS :    1, 0.33       2, 0.67
  4004 1777-10-256     10    256.0       2378.    
  4005 1823-42-362     42    362.0       2268.    
     MULTIPLE LAYERS AND PROPORTIONS :    1, 0.44       2, 0.56
  4006 1823-48-357     48    357.0       2235.    
     MULTIPLE LAYERS AND PROPORTIONS :    1, 0.44       2, 0.56
  4007 1823-56-32      56    32.00       2194.    
     MULTIPLE LAYERS AND PROPORTIONS :    1, 0.45       2, 0.55
  4008 1823-60-313     60    313.0       2165.    
     MULTIPLE LAYERS AND PROPORTIONS :    1, 0.45       2, 0.55
  4009 1823-66-19      66    19.00       2171.    
     MULTIPLE LAYERS AND PROPORTIONS :    1, 0.45       2, 0.55
  4010 1823-71-49      71    49.00       2194.    
     MULTIPLE LAYERS AND PROPORTIONS :    1, 0.45       2, 0.55
  4011 1823-71-365     71    365.0       2200.    
     MULTIPLE LAYERS AND PROPORTIONS :    1, 0.45       2, 0.55
  4012 1744-10-256     10    256.0       2381.    
  4013 1907-12-116     12    116.0       2361.    
  4014 1907-22-79      22    79.00       2337.    
  4015 1907-42-362     42    362.0       2259.    
  4016 1907-48-357     48    357.0       2229.    
  4017 1907-71-365     71    365.0       2189.    
  4018 1906-42-362     42    362.0       2259.    
     MULTIPLE LAYERS AND PROPORTIONS :    1, 0.34       2, 0.66
  4019 1906-48-357     48    357.0       2230.    
     MULTIPLE LAYERS AND PROPORTIONS :    1, 0.34       2, 0.66
  4020 1906-55-356     55    356.0       2188.    
     MULTIPLE LAYERS AND PROPORTIONS :    1, 0.34       2, 0.66
  4021 1906-60-341     60    341.0       2164.    
     MULTIPLE LAYERS AND PROPORTIONS :    1, 0.34       2, 0.66
  4022 1906-65-355     65    355.0       2153.    
     MULTIPLE LAYERS AND PROPORTIONS :    1, 0.34       2, 0.66
  4023 1906-71-32      71    32.00       2182.    
     MULTIPLE LAYERS AND PROPORTIONS :    1, 0.34       2, 0.66
  4024 1906-71-365     71    365.0       2189.    
     MULTIPLE LAYERS AND PROPORTIONS :    1, 0.34       2, 0.66
  4025 1899-66-19      66    19.00       2159.    
  4026 1899-71-32      71    32.00       2181.    
  4027 1899-71-365     71    365.0       2188.    
  4028 1778-12-261     12    261.0       2348.    
  4029 1764-10-257     10    257.0       2360.    
  4030 1765-42-362     42    362.0       2257.    
     MULTIPLE LAYERS AND PROPORTIONS :    1, 0.15       2, 0.85
  4031 1765-48-357     48    357.0       2229.    
     MULTIPLE LAYERS AND PROPORTIONS :    1, 0.15       2, 0.85
  4032 1765-55-354     55    354.0       2179.    
     MULTIPLE LAYERS AND PROPORTIONS :    1, 0.15       2, 0.85
  4033 1765-60-349     60    349.0       2153.    
     MULTIPLE LAYERS AND PROPORTIONS :    1, 0.15       2, 0.85
  4034 1765-66-56      66    56.00       2160.    
     MULTIPLE LAYERS AND PROPORTIONS :    1, 0.15       2, 0.85
  4035 1765-71-32      71    32.00       2181.    
     MULTIPLE LAYERS AND PROPORTIONS :    1, 0.15       2, 0.85
  4036 1765-71-365     71    365.0       2188.    
     MULTIPLE LAYERS AND PROPORTIONS :    1, 0.15       2, 0.85
  4037 1816-10-153     10    153.0       2360.    
  4038 1825-42-335     42    335.0       2255.    
     MULTIPLE LAYERS AND PROPORTIONS :    1, 0.14       2, 0.86
  4039 1825-48-357     48    357.0       2225.    
     MULTIPLE LAYERS AND PROPORTIONS :    1, 0.14       2, 0.86
  4040 1825-56-27      56    27.00       2180.    
     MULTIPLE LAYERS AND PROPORTIONS :    1, 0.14       2, 0.86
  4041 1825-61-42      61    42.00       2142.    
     MULTIPLE LAYERS AND PROPORTIONS :    1, 0.14       2, 0.86
  4042 1825-66-19      66    19.00       2156.    
     MULTIPLE LAYERS AND PROPORTIONS :    1, 0.14       2, 0.86
  4043 1825-71-32      71    32.00       2178.    
     MULTIPLE LAYERS AND PROPORTIONS :    1, 0.14       2, 0.86
  4044 1825-71-365     71    365.0       2185.    
     MULTIPLE LAYERS AND PROPORTIONS :    1, 0.14       2, 0.86
  4045 1888-22-79      22    79.00       2317.    
  4046 1888-32-32      32    32.00       2295.    
  4047 1888-42-362     42    362.0       2247.    
  4048 1888-48-357     48    357.0       2222.    
  4049 1888-65-355     65    355.0       2147.    
  4050 1888-71-32      71    32.00       2173.    
  4051 1888-71-365     71    365.0       2179.    
  4052 1890-42-362     42    362.0       2247.    
     MULTIPLE LAYERS AND PROPORTIONS :    1, 0.20       2, 0.80
  4053 1890-48-357     48    357.0       2222.    
     MULTIPLE LAYERS AND PROPORTIONS :    1, 0.20       2, 0.80
  4054 1890-55-350     55    350.0       2180.    
     MULTIPLE LAYERS AND PROPORTIONS :    1, 0.20       2, 0.80
  4055 1890-61-42      61    42.00       2153.    
     MULTIPLE LAYERS AND PROPORTIONS :    1, 0.20       2, 0.80
  4056 1890-66-19      66    19.00       2152.    
     MULTIPLE LAYERS AND PROPORTIONS :    1, 0.20       2, 0.80
  4057 1890-71-32      71    32.00       2176.    
     MULTIPLE LAYERS AND PROPORTIONS :    1, 0.20       2, 0.80
  4058 1890-71-365     71    365.0       2180.    
     MULTIPLE LAYERS AND PROPORTIONS :    1, 0.20       2, 0.80
  4059 1812-12-91      12    91.00       2340.    
  4060 1812-22-62      22    62.00       2314.    
  4061 1812-32-60      32    60.00       2298.    
  4062 1827-42-362     42    362.0       2250.    
  4063 1827-48-357     48    357.0       2224.    
  4064 1827-56-25      56    25.00       2183.    
  4065 1827-61-42      61    42.00       2153.    
  4066 1827-66-19      66    19.00       2155.    
  4067 1827-71-32      71    32.00       2178.    
  4068 1827-71-365     71    365.0       2184.    
  4069 1779-12-109     12    109.0       2333.    
  4070 1779-17-80      17    80.00       2325.    
  4071 1779-22-79      22    79.00       2314.    
  4072 1779-42-362     42    362.0       2247.    
  4073 1870-42-364     42    364.0       2234.    
  4074 1817-56-20      56    20.00       2185.    
  4075 1817-66-34      66    34.00       2159.    
  4076 1747-71-60      71    60.00       2179.    
  4077 1722-1-152       1    152.0       2342.    
 Observation within a steady-state time step has been moved to the end of the time step.
  4078 1722-22-80      22    80.00       2297.    
  4079 1722-26-349     26    349.0       2292.    
  4080 1722-32-32      32    32.00       2282.    
  4081 1722-42-362     42    362.0       2237.    
  4082 1722-48-357     48    357.0       2221.    
  4083 1722-56-24      56    24.00       2192.    
  4084 1722-61-11      61    11.00       2180.    
  4085 1722-66-59      66    59.00       2175.    
  4086 1722-71-56      71    56.00       2178.    
  4087 1722-71-365     71    365.0       2182.    
  4088 1668-56-20      56    20.00       2191.    
  4089 1666-66-34      66    34.00       2190.    
  4090 1718-56-20      56    20.00       2187.    
     MULTIPLE LAYERS AND PROPORTIONS :    1, 0.79       2, 0.21
  4091 1718-61-59      61    59.00       2146.    
     MULTIPLE LAYERS AND PROPORTIONS :    1, 0.79       2, 0.21
  4092 1718-66-34      66    34.00       2164.    
     MULTIPLE LAYERS AND PROPORTIONS :    1, 0.79       2, 0.21
  4093 1662-56-20      56    20.00       2204.    
     MULTIPLE LAYERS AND PROPORTIONS :    1, 0.17       2, 0.83
  4094 1664-66-34      66    34.00       2183.    
  4095 1664-71-60      71    60.00       2192.    
  4096 1641-66-34      66    34.00       2201.    
  4097 1619-1-365       1    365.0       2394.    
 Observation within a steady-state time step has been moved to the end of the time step.
     MULTIPLE LAYERS AND PROPORTIONS :    1, 0.59       2, 0.41
  4098 1619-8-57        8    57.00       2377.    
     MULTIPLE LAYERS AND PROPORTIONS :    1, 0.59       2, 0.41
  4099 1619-12-59      12    59.00       2359.    
     MULTIPLE LAYERS AND PROPORTIONS :    1, 0.59       2, 0.41
  4100 1619-17-87      17    87.00       2354.    
     MULTIPLE LAYERS AND PROPORTIONS :    1, 0.59       2, 0.41
  4101 1619-22-79      22    79.00       2342.    
     MULTIPLE LAYERS AND PROPORTIONS :    1, 0.59       2, 0.41
  4102 1619-42-335     42    335.0       2296.    
     MULTIPLE LAYERS AND PROPORTIONS :    1, 0.59       2, 0.41
  4103 1608-35-121     35    121.0       2274.    
     MULTIPLE LAYERS AND PROPORTIONS :    1, 0.62       2, 0.38
  4104 1608-42-362     42    362.0       2247.    
     MULTIPLE LAYERS AND PROPORTIONS :    1, 0.62       2, 0.38
  4105 1608-48-357     48    357.0       2236.    
     MULTIPLE LAYERS AND PROPORTIONS :    1, 0.62       2, 0.38
  4106 1608-55-340     55    340.0       2209.    
     MULTIPLE LAYERS AND PROPORTIONS :    1, 0.62       2, 0.38
  4107 1608-60-348     60    348.0       2202.    
     MULTIPLE LAYERS AND PROPORTIONS :    1, 0.62       2, 0.38
  4108 1608-66-5       66    5.000       2200.    
     MULTIPLE LAYERS AND PROPORTIONS :    1, 0.62       2, 0.38
  4109 1608-71-1       71   1.0000       2203.    
     MULTIPLE LAYERS AND PROPORTIONS :    1, 0.62       2, 0.38
  4110 1608-71-365     71    365.0       2204.    
     MULTIPLE LAYERS AND PROPORTIONS :    1, 0.62       2, 0.38
  4111 1714-56-33      56    33.00       2195.    
  4112 1714-71-29      71    29.00       2178.    
  4113 1714-71-365     71    365.0       2182.    
  4114 1715-66-59      66    59.00       2166.    
  4115 1715-71-29      71    29.00       2178.    
  4116 1715-71-365     71    365.0       2183.    
  4117 1716-66-59      66    59.00       2166.    
  4118 1716-71-29      71    29.00       2177.    
  4119 1716-71-365     71    365.0       2181.    
  4120 1717-71-32      71    32.00       2177.    
  4121 1717-71-365     71    365.0       2181.    
  4122 1689-71-29      71    29.00       2180.    
  4123 1689-71-365     71    365.0       2183.    
  4124 1696-66-59      66    59.00       2170.    
  4125 1696-71-29      71    29.00       2180.    
  4126 1696-71-365     71    365.0       2183.    
  4127 1673-2-274       2    274.0       2365.    
     MULTIPLE LAYERS AND PROPORTIONS :    1, 0.81       2, 0.19
  4128 1673-8-57        8    57.00       2356.    
     MULTIPLE LAYERS AND PROPORTIONS :    1, 0.81       2, 0.19
  4129 1673-12-59      12    59.00       2341.    
     MULTIPLE LAYERS AND PROPORTIONS :    1, 0.81       2, 0.19
  4130 1673-17-87      17    87.00       2331.    
     MULTIPLE LAYERS AND PROPORTIONS :    1, 0.81       2, 0.19
  4131 1673-22-79      22    79.00       2324.    
     MULTIPLE LAYERS AND PROPORTIONS :    1, 0.81       2, 0.19
  4132 1673-42-363     42    363.0       2258.    
     MULTIPLE LAYERS AND PROPORTIONS :    1, 0.81       2, 0.19
  4133 1673-48-357     48    357.0       2234.    
     MULTIPLE LAYERS AND PROPORTIONS :    1, 0.81       2, 0.19
  4134 1673-56-24      56    24.00       2195.    
     MULTIPLE LAYERS AND PROPORTIONS :    1, 0.81       2, 0.19
  4135 1723-1-32        1    32.00       2370.    
 Observation within a steady-state time step has been moved to the end of the time step.
  4136 1723-12-59      12    59.00       2331.    
  4137 1723-17-87      17    87.00       2319.    
  4138 1723-22-80      22    80.00       2306.    
  4139 1723-42-363     42    363.0       2250.    
  4140 1723-48-357     48    357.0       2231.    
  4141 1723-56-24      56    24.00       2195.    
  4142 1723-60-348     60    348.0       2174.    
  4143 1723-66-59      66    59.00       2169.    
  4144 1723-71-32      71    32.00       2180.    
  4145 1723-71-365     71    365.0       2185.    
  4146 1724-1-365       1    365.0       2346.    
 Observation within a steady-state time step has been moved to the end of the time step.
  4147 1724-12-59      12    59.00       2327.    
  4148 1724-17-82      17    82.00       2317.    
  4149 1724-22-80      22    80.00       2304.    
  4150 1724-42-363     42    363.0       2247.    
  4151 1724-48-357     48    357.0       2230.    
  4152 1724-56-20      56    20.00       2196.    
  4153 1724-60-348     60    348.0       2180.    
  4154 1724-66-59      66    59.00       2175.    
  4155 1724-71-56      71    56.00       2182.    
  4156 1724-71-365     71    365.0       2186.    
  4157 1694-17-82      17    82.00       2345.    
     MULTIPLE LAYERS AND PROPORTIONS :    1, 0.79       2, 0.21
  4158 1694-22-80      22    80.00       2332.    
     MULTIPLE LAYERS AND PROPORTIONS :    1, 0.79       2, 0.21
  4159 1699-42-363     42    363.0       2258.    
  4160 1699-48-357     48    357.0       2227.    
  4161 1699-55-356     55    356.0       2177.    
  4162 1699-60-349     60    349.0       2146.    
  4163 1699-66-56      66    56.00       2161.    
  4164 1699-71-32      71    32.00       2177.    
  4165 1699-71-365     71    365.0       2185.    
  4166 1695-7-158       7    158.0       2368.    
  4167 1695-42-363     42    363.0       2263.    
  4168 1695-48-357     48    357.0       2234.    
  4169 1695-56-24      56    24.00       2185.    
  4170 1695-60-336     60    336.0       2192.    
  4171 1695-66-56      66    56.00       2168.    
  4172 1695-71-56      71    56.00       2184.    
  4173 1695-71-365     71    365.0       2190.    
  4174 1658-2-217       2    217.0       2372.    
     MULTIPLE LAYERS AND PROPORTIONS :    1, 0.83       2, 0.17
  4175 1658-8-58        8    58.00       2367.    
     MULTIPLE LAYERS AND PROPORTIONS :    1, 0.83       2, 0.17
  4176 1658-12-59      12    59.00       2352.    
     MULTIPLE LAYERS AND PROPORTIONS :    1, 0.83       2, 0.17
  4177 1658-17-87      17    87.00       2338.    
     MULTIPLE LAYERS AND PROPORTIONS :    1, 0.83       2, 0.17
  4178 1658-22-81      22    81.00       2328.    
     MULTIPLE LAYERS AND PROPORTIONS :    1, 0.83       2, 0.17
  4179 1652-42-363     42    363.0       2266.    
  4180 1652-48-357     48    357.0       2241.    
  4181 1652-56-24      56    24.00       2202.    
  4182 1652-60-349     60    349.0       2177.    
  4183 1652-66-1       66   1.0000       2177.    
  4184 1652-71-76      71    76.00       2192.    
  4185 1652-71-365     71    365.0       2196.    
  4186 1633-12-96      12    96.00       2371.    
  4187 1633-17-89      17    89.00       2356.    
  4188 1633-42-355     42    355.0       2266.    
  4189 1713-61-54      61    54.00       2157.    
  4190 1713-66-56      66    56.00       2183.    
  4191 1713-71-64      71    64.00       2202.    
  4192 1713-71-365     71    365.0       2207.    
  4193 1670-42-357     42    357.0       2269.    
     MULTIPLE LAYERS AND PROPORTIONS :    1, 0.40       2, 0.60
  4194 1656-22-80      22    80.00       2344.    
  4195 1656-31-351     31    351.0       2319.    
  4196 1656-37-343     37    343.0       2281.    
  4197 1656-55-360     55    360.0       2198.    
  4198 1656-61-42      61    42.00       2155.    
  4199 1656-66-56      66    56.00       2179.    
  4200 1656-71-33      71    33.00       2195.    
  4201 1656-71-365     71    365.0       2200.    
  4202 1655-17-89      17    89.00       2365.    
     MULTIPLE LAYERS AND PROPORTIONS :    1, 0.98       2, 0.02
  4203 1655-22-80      22    80.00       2348.    
     MULTIPLE LAYERS AND PROPORTIONS :    1, 0.98       2, 0.02
  4204 1655-42-355     42    355.0       2271.    
     MULTIPLE LAYERS AND PROPORTIONS :    1, 0.98       2, 0.02
  4205 1655-48-364     48    364.0       2236.    
     MULTIPLE LAYERS AND PROPORTIONS :    1, 0.98       2, 0.02
  4206 1651-42-362     42    362.0       2268.    
  4207 1651-48-355     48    355.0       2239.    
  4208 1657-60-349     60    349.0       2162.    
     MULTIPLE LAYERS AND PROPORTIONS :    2, 0.88       3, 0.12
  4209 1657-66-56      66    56.00       2177.    
     MULTIPLE LAYERS AND PROPORTIONS :    2, 0.88       3, 0.12
  4210 1657-71-32      71    32.00       2193.    
     MULTIPLE LAYERS AND PROPORTIONS :    2, 0.88       3, 0.12
  4211 1657-71-365     71    365.0       2198.    
     MULTIPLE LAYERS AND PROPORTIONS :    2, 0.88       3, 0.12
  4212 1614-12-96      12    96.00       2380.    
  4213 1614-17-89      17    89.00       2369.    
  4214 1614-22-80      22    80.00       2347.    
  4215 1615-17-89      17    89.00       2366.    
  4216 1615-22-80      22    80.00       2347.    
  4217 1615-42-356     42    356.0       2273.    
  4218 1615-48-355     48    355.0       2242.    
  4219 1615-56-20      56    20.00       2207.    
  4220 1615-61-31      61    31.00       2163.    
  4221 1615-66-56      66    56.00       2186.    
  4222 1615-71-33      71    33.00       2200.    
  4223 1615-71-365     71    365.0       2204.    
  4224 1611-42-356     42    356.0       2272.    
     MULTIPLE LAYERS AND PROPORTIONS :    1, 0.19       2, 0.81
  4225 1611-48-355     48    355.0       2241.    
     MULTIPLE LAYERS AND PROPORTIONS :    1, 0.19       2, 0.81
  4226 1611-56-20      56    20.00       2207.    
     MULTIPLE LAYERS AND PROPORTIONS :    1, 0.19       2, 0.81
  4227 1611-61-31      61    31.00       2163.    
     MULTIPLE LAYERS AND PROPORTIONS :    1, 0.19       2, 0.81
  4228 1611-66-56      66    56.00       2185.    
     MULTIPLE LAYERS AND PROPORTIONS :    1, 0.19       2, 0.81
  4229 1611-71-33      71    33.00       2199.    
     MULTIPLE LAYERS AND PROPORTIONS :    1, 0.19       2, 0.81
  4230 1611-71-365     71    365.0       2204.    
     MULTIPLE LAYERS AND PROPORTIONS :    1, 0.19       2, 0.81
  4231 1708-42-357     42    357.0       2272.    
     MULTIPLE LAYERS AND PROPORTIONS :    1, 0.49       2, 0.51
  4232 1708-48-341     48    341.0       2223.    
     MULTIPLE LAYERS AND PROPORTIONS :    1, 0.49       2, 0.51
  4233 1693-17-87      17    87.00       2379.    
  4234 1693-22-79      22    79.00       2362.    
  4235 1693-42-356     42    356.0       2271.    
  4236 1693-48-356     48    356.0       2236.    
  4237 1687-42-356     42    356.0       2273.    
     MULTIPLE LAYERS AND PROPORTIONS :    1, 0.19       2, 0.81
  4238 1687-48-356     48    356.0       2238.    
     MULTIPLE LAYERS AND PROPORTIONS :    1, 0.19       2, 0.81
  4239 1687-56-27      56    27.00       2207.    
     MULTIPLE LAYERS AND PROPORTIONS :    1, 0.19       2, 0.81
  4240 1687-61-26      61    26.00       2181.    
     MULTIPLE LAYERS AND PROPORTIONS :    1, 0.19       2, 0.81
  4241 1687-66-56      66    56.00       2192.    
     MULTIPLE LAYERS AND PROPORTIONS :    1, 0.19       2, 0.81
  4242 1687-71-33      71    33.00       2207.    
     MULTIPLE LAYERS AND PROPORTIONS :    1, 0.19       2, 0.81
  4243 1687-71-365     71    365.0       2212.    
     MULTIPLE LAYERS AND PROPORTIONS :    1, 0.19       2, 0.81
  4244 1681-17-87      17    87.00       2373.    
  4245 1681-22-79      22    79.00       2354.    
  4246 1681-26-294     26    294.0       2343.    
  4247 1681-48-356     48    356.0       2235.    
  4248 1681-66-56      66    56.00       2184.    
  4249 1681-71-33      71    33.00       2201.    
  4250 1681-71-365     71    365.0       2202.    
  4251 1688-42-356     42    356.0       2269.    
     MULTIPLE LAYERS AND PROPORTIONS :    1, 0.16       2, 0.84
  4252 1688-48-356     48    356.0       2235.    
     MULTIPLE LAYERS AND PROPORTIONS :    1, 0.16       2, 0.84
  4253 1688-55-364     55    364.0       2210.    
     MULTIPLE LAYERS AND PROPORTIONS :    1, 0.16       2, 0.84
  4254 1688-61-21      61    21.00       2182.    
     MULTIPLE LAYERS AND PROPORTIONS :    1, 0.16       2, 0.84
  4255 1688-66-56      66    56.00       2184.    
     MULTIPLE LAYERS AND PROPORTIONS :    1, 0.16       2, 0.84
  4256 1688-71-33      71    33.00       2201.    
     MULTIPLE LAYERS AND PROPORTIONS :    1, 0.16       2, 0.84
  4257 1688-71-365     71    365.0       2203.    
     MULTIPLE LAYERS AND PROPORTIONS :    1, 0.16       2, 0.84
  4258 1596-12-96      12    96.00       2385.    
  4259 1596-22-81      22    81.00       2353.    
  4260 1596-42-356     42    356.0       2271.    
  4261 1621-42-356     42    356.0       2275.    
     MULTIPLE LAYERS AND PROPORTIONS :    1, 0.46       2, 0.54
  4262 1621-48-356     48    356.0       2242.    
     MULTIPLE LAYERS AND PROPORTIONS :    1, 0.46       2, 0.54
  4263 1621-56-6       56    6.000       2216.    
     MULTIPLE LAYERS AND PROPORTIONS :    1, 0.46       2, 0.54
  4264 1621-61-42      61    42.00       2165.    
     MULTIPLE LAYERS AND PROPORTIONS :    1, 0.46       2, 0.54
  4265 1621-65-355     65    355.0       2189.    
     MULTIPLE LAYERS AND PROPORTIONS :    1, 0.46       2, 0.54
  4266 1621-71-33      71    33.00       2206.    
     MULTIPLE LAYERS AND PROPORTIONS :    1, 0.46       2, 0.54
  4267 1621-71-365     71    365.0       2209.    
     MULTIPLE LAYERS AND PROPORTIONS :    1, 0.46       2, 0.54
  4268 1605-11-45      11    45.00       2405.    
  4269 1630-17-87      17    87.00       2382.    
  4270 1630-22-79      22    79.00       2366.    
  4271 1630-42-355     42    355.0       2277.    
  4272 1630-48-356     48    356.0       2242.    
  4273 1630-66-59      66    59.00       2198.    
  4274 1630-71-33      71    33.00       2210.    
  4275 1630-71-365     71    365.0       2211.    
  4276 1629-42-355     42    355.0       2274.    
  4277 1629-48-356     48    356.0       2242.    
  4278 1629-56-9       56    9.000       2225.    
  4279 1629-61-21      61    21.00       2198.    
  4280 1629-66-59      66    59.00       2199.    
  4281 1629-71-33      71    33.00       2211.    
  4282 1629-71-365     71    365.0       2213.    
  4283 1683-22-79      22    79.00       2379.    
     MULTIPLE LAYERS AND PROPORTIONS :    1, 0.71       2, 0.29
  4284 1683-26-349     26    349.0       2360.    
     MULTIPLE LAYERS AND PROPORTIONS :    1, 0.71       2, 0.29
  4285 1683-42-355     42    355.0       2286.    
     MULTIPLE LAYERS AND PROPORTIONS :    1, 0.71       2, 0.29
  4286 1683-48-355     48    355.0       2256.    
  4287 1683-56-27      56    27.00       2237.    
  4288 1683-60-349     60    349.0       2213.    
  4289 1683-66-54      66    54.00       2213.    
     MULTIPLE LAYERS AND PROPORTIONS :    1, 0.71       2, 0.29
  4290 1679-42-355     42    355.0       2286.    
  4291 1679-48-355     48    355.0       2251.    
  4292 1679-56-27      56    27.00       2238.    
  4293 1679-61-11      61    11.00       2213.    
  4294 1680-66-54      66    54.00       2212.    
  4295 1654-42-355     42    355.0       2280.    
  4296 1654-48-355     48    355.0       2244.    
  4297 1654-56-27      56    27.00       2225.    
  4298 1654-61-14      61    14.00       2198.    
  4299 1654-66-54      66    54.00       2206.    
  4300 1654-71-64      71    64.00       2218.    
  4301 1654-71-365     71    365.0       2221.    
  4302 1660-42-355     42    355.0       2279.    
  4303 1660-48-355     48    355.0       2243.    
  4304 1660-56-27      56    27.00       2224.    
  4305 1660-60-349     60    349.0       2198.    
  4306 1660-66-54      66    54.00       2205.    
  4307 1660-71-64      71    64.00       2218.    
  4308 1660-71-365     71    365.0       2221.    
  4309 1554-22-81      22    81.00       2379.    
     MULTIPLE LAYERS AND PROPORTIONS :    1, 0.91       2, 0.09
  4310 1554-27-15      27    15.00       2357.    
     MULTIPLE LAYERS AND PROPORTIONS :    1, 0.91       2, 0.09
  4311 1554-32-60      32    60.00       2340.    
     MULTIPLE LAYERS AND PROPORTIONS :    1, 0.91       2, 0.09
  4312 1554-56-26      56    26.00       2254.    
  4313 1554-61-12      61    12.00       2230.    
  4314 1554-66-59      66    59.00       2227.    
  4315 1554-71-54      71    54.00       2233.    
  4316 1554-71-365     71    365.0       2236.    
  4317 1504-22-60      22    60.00       2375.    
     MULTIPLE LAYERS AND PROPORTIONS :    1, 0.89       2, 0.11
  4318 1548-7-158       7    158.0       2406.    
  4319 1548-11-82      11    82.00       2402.    
  4320 1548-17-87      17    87.00       2380.    
  4321 1548-22-81      22    81.00       2365.    
  4322 1548-26-278     26    278.0       2343.    
  4323 1550-48-365     48    365.0       2255.    
     MULTIPLE LAYERS AND PROPORTIONS :    1, 0.39       2, 0.61
  4324 1550-56-6       56    6.000       2225.    
     MULTIPLE LAYERS AND PROPORTIONS :    1, 0.39       2, 0.61
  4325 1550-61-27      61    27.00       2193.    
     MULTIPLE LAYERS AND PROPORTIONS :    1, 0.39       2, 0.61
  4326 1550-66-28      66    28.00       2206.    
     MULTIPLE LAYERS AND PROPORTIONS :    1, 0.39       2, 0.61
  4327 1550-71-13      71    13.00       2215.    
     MULTIPLE LAYERS AND PROPORTIONS :    1, 0.39       2, 0.61
  4328 1550-71-365     71    365.0       2219.    
     MULTIPLE LAYERS AND PROPORTIONS :    1, 0.39       2, 0.61
  4329 1559-66-46      66    46.00       2194.    
  4330 1559-71-365     71    365.0       2207.    
  4331 1569-32-60      32    60.00       2330.    
  4332 1569-37-89      37    89.00       2305.    
  4333 1569-42-356     42    356.0       2281.    
  4334 1569-48-355     48    355.0       2252.    
  4335 1569-56-26      56    26.00       2222.    
  4336 1569-61-24      61    24.00       2180.    
  4337 1569-66-28      66    28.00       2199.    
  4338 1569-71-365     71    365.0       2215.    
  4339 1540-17-86      17    86.00       2377.    
  4340 1540-22-81      22    81.00       2362.    
  4341 1540-26-279     26    279.0       2342.    
  4342 1540-42-355     42    355.0       2284.    
  4343 1540-48-355     48    355.0       2257.    
  4344 1540-56-26      56    26.00       2232.    
  4345 1540-60-350     60    350.0       2200.    
  4346 1540-66-28      66    28.00       2205.    
  4347 1540-71-365     71    365.0       2218.    
  4348 1526-17-87      17    87.00       2378.    
  4349 1526-22-81      22    81.00       2363.    
  4350 1526-26-349     26    349.0       2384.    
  4351 1526-32-60      32    60.00       2329.    
  4352 1526-42-356     42    356.0       2289.    
  4353 1526-48-355     48    355.0       2269.    
  4354 1526-56-26      56    26.00       2243.    
  4355 1526-60-350     60    350.0       2211.    
  4356 1526-65-355     65    355.0       2210.    
  4357 1526-71-362     70    362.0       2219.    
  4358 1518-42-357     42    357.0       2288.    
     MULTIPLE LAYERS AND PROPORTIONS :    1, 0.24       2, 0.76
  4359 1517-71-53      71    53.00       2226.    
  4360 1517-71-365     71    365.0       2228.    
  4361 1564-56-26      56    26.00       2224.    
  4362 1564-71-365     71    365.0       2211.    
  4363 1552-12-59      12    59.00       2387.    
  4364 1552-17-85      17    85.00       2369.    
  4365 1552-22-80      22    80.00       2348.    
  4366 1557-42-356     42    356.0       2279.    
  4367 1557-48-355     48    355.0       2255.    
  4368 1557-56-20      56    20.00       2229.    
  4369 1557-71-13      71    13.00       2210.    
  4370 1557-71-365     71    365.0       2214.    
  4371 1570-2-98        2    98.00       2390.    
  4372 1631-12-96      12    96.00       2393.    
  4373 1631-17-87      17    87.00       2379.    
  4374 1631-22-80      22    80.00       2357.    
  4375 1631-26-279     26    279.0       2340.    
  4376 1631-42-355     42    355.0       2287.    
  4377 1631-48-355     48    355.0       2262.    
  4378 1631-56-26      56    26.00       2241.    
  4379 1631-66-32      66    32.00       2212.    
  4380 1631-71-33      71    33.00       2220.    
  4381 1631-71-365     71    365.0       2226.    
  4382 1519-42-355     42    355.0       2288.    
     MULTIPLE LAYERS AND PROPORTIONS :    1, 0.11       2, 0.89
  4383 1519-48-355     48    355.0       2265.    
     MULTIPLE LAYERS AND PROPORTIONS :    1, 0.11       2, 0.89
  4384 1519-56-20      56    20.00       2242.    
     MULTIPLE LAYERS AND PROPORTIONS :    1, 0.11       2, 0.89
  4385 1519-61-18      61    18.00       2212.    
     MULTIPLE LAYERS AND PROPORTIONS :    1, 0.11       2, 0.89
  4386 1519-66-32      66    32.00       2212.    
     MULTIPLE LAYERS AND PROPORTIONS :    1, 0.11       2, 0.89
  4387 1519-71-33      71    33.00       2222.    
     MULTIPLE LAYERS AND PROPORTIONS :    1, 0.11       2, 0.89
  4388 1519-71-365     71    365.0       2225.    
     MULTIPLE LAYERS AND PROPORTIONS :    1, 0.11       2, 0.89
  4389 1542-56-20      56    20.00       2230.    
  4390 1542-60-350     60    350.0       2189.    
  4391 1542-66-54      66    54.00       2201.    
  4392 1542-71-13      71    13.00       2211.    
  4393 1542-71-365     71    365.0       2215.    
  4394 1520-17-87      17    87.00       2376.    
  4395 1520-22-80      22    80.00       2358.    
  4396 1520-32-60      32    60.00       2328.    
  4397 1520-42-356     42    356.0       2288.    
  4398 1597-56-27      56    27.00       2221.    
  4399 1597-66-26      66    26.00       2193.    
  4400 1597-71-28      71    28.00       2205.    
  4401 1597-71-365     71    365.0       2208.    
  4402 1581-11-256     11    256.0       2383.    
  4403 1583-56-27      56    27.00       2226.    
  4404 1583-66-26      66    26.00       2197.    
  4405 1583-71-28      71    28.00       2207.    
  4406 1583-71-29      71    29.00       2209.    
  4407 1583-71-365     71    365.0       2210.    
  4408 1583-71-365     71    365.0       2210.    
  4409 1565-71-28      71    28.00       2215.    
  4410 1565-71-365     71    365.0       2217.    
  4411 1595-11-257     11    257.0       2369.    
  4412 1533-8-65        8    65.00       2373.    
  4413 1533-12-96      12    96.00       2366.    
  4414 1533-17-82      17    82.00       2354.    
  4415 1533-22-80      22    80.00       2339.    
  4416 1533-27-15      27    15.00       2324.    
  4417 1533-42-363     42    363.0       2280.    
  4418 1537-42-363     42    363.0       2277.    
  4419 1537-48-357     48    357.0       2262.    
  4420 1541-66-55      66    55.00       2208.    
  4421 1541-71-76      71    76.00       2217.    
  4422 1541-71-365     71    365.0       2216.    
  4423 1510-42-357     42    357.0       2288.    
  4424 1510-48-337     48    337.0       2274.    
  4425 1510-56-18      56    18.00       2247.    
  4426 1510-60-333     60    333.0       2215.    
  4427 1510-65-299     65    299.0       2215.    
  4428 1510-71-11      71    11.00       2226.    
  4429 1510-71-365     71    365.0       2232.    
  4430 1511-31-351     31    351.0       2321.    
  4431 1511-37-27      37    27.00       2298.    
  4432 1511-42-357     42    357.0       2285.    
  4433 1511-48-337     48    337.0       2270.    
  4434 1511-56-18      56    18.00       2243.    
  4435 1511-60-333     60    333.0       2210.    
  4436 1511-65-299     65    299.0       2210.    
  4437 1511-71-12      71    12.00       2223.    
  4438 1511-71-365     71    365.0       2231.    
  4439 1512-31-351     31    351.0       2313.    
  4440 1512-42-357     42    357.0       2281.    
  4441 1512-48-337     48    337.0       2266.    
  4442 1512-56-18      56    18.00       2244.    
  4443 1513-31-351     31    351.0       2313.    
  4444 1513-42-357     42    357.0       2279.    
  4445 1513-48-337     48    337.0       2262.    
  4446 1513-56-18      56    18.00       2241.    
  4447 1513-60-333     60    333.0       2223.    
  4448 1513-65-299     65    299.0       2216.    
  4449 1513-71-11      71    11.00       2225.    
  4450 1513-71-365     71    365.0       2229.    
  4451 1505-66-26      66    26.00       2212.    
  4452 1505-71-53      71    53.00       2224.    
  4453 1505-71-365     71    365.0       2227.    
  4454 1546-8-65        8    65.00       2365.    
  4455 1546-10-31      10    31.00       2359.    
  4456 1546-17-82      17    82.00       2340.    
  4457 1546-22-81      22    81.00       2325.    
  4458 1551-42-363     42    363.0       2269.    
     MULTIPLE LAYERS AND PROPORTIONS :    1, 0.51       2, 0.49
  4459 1551-48-357     48    357.0       2247.    
     MULTIPLE LAYERS AND PROPORTIONS :    1, 0.51       2, 0.49
  4460 1551-56-13      56    13.00       2223.    
     MULTIPLE LAYERS AND PROPORTIONS :    1, 0.51       2, 0.49
  4461 1551-61-31      61    31.00       2211.    
     MULTIPLE LAYERS AND PROPORTIONS :    1, 0.51       2, 0.49
  4462 1551-66-19      66    19.00       2205.    
     MULTIPLE LAYERS AND PROPORTIONS :    1, 0.51       2, 0.49
  4463 1551-71-32      71    32.00       2214.    
     MULTIPLE LAYERS AND PROPORTIONS :    1, 0.51       2, 0.49
  4464 1551-71-365     71    365.0       2217.    
     MULTIPLE LAYERS AND PROPORTIONS :    1, 0.51       2, 0.49
  4465 1525-10-154     10    154.0       2356.    
  4466 1525-22-83      22    83.00       2327.    
  4467 1525-32-60      32    60.00       2295.    
  4468 1525-42-363     42    363.0       2270.    
  4469 1525-56-25      56    25.00       2233.    
  4470 1525-60-351     60    351.0       2221.    
  4471 1525-66-1       66   1.0000       2214.    
  4472 1525-71-32      71    32.00       2220.    
  4473 1525-71-365     71    365.0       2222.    
  4474 1813-17-82      17    82.00       2346.    
  4475 1813-22-82      22    82.00       2331.    
  4476 1813-26-294     26    294.0       2315.    
  4477 1813-42-363     42    363.0       2274.    
  4478 1813-48-357     48    357.0       2254.    
  4479 1813-56-25      56    25.00       2232.    
  4480 1813-60-351     60    351.0       2216.    
  4481 1813-66-19      66    19.00       2211.    
  4482 1813-71-32      71    32.00       2219.    
  4483 1813-71-365     71    365.0       2221.    
  4484 1538-10-154     10    154.0       2366.    
     MULTIPLE LAYERS AND PROPORTIONS :    1, 0.14       2, 0.86
  4485 1538-17-86      17    86.00       2350.    
     MULTIPLE LAYERS AND PROPORTIONS :    1, 0.14       2, 0.86
  4486 1538-22-82      22    82.00       2333.    
     MULTIPLE LAYERS AND PROPORTIONS :    1, 0.14       2, 0.86
  4487 1538-42-363     42    363.0       2276.    
     MULTIPLE LAYERS AND PROPORTIONS :    1, 0.14       2, 0.86
  4488 1567-12-59      12    59.00       2335.    
     MULTIPLE LAYERS AND PROPORTIONS :    1, 0.71       2, 0.29
  4489 1567-17-85      17    85.00       2326.    
     MULTIPLE LAYERS AND PROPORTIONS :    1, 0.71       2, 0.29
  4490 1567-22-53      22    53.00       2311.    
     MULTIPLE LAYERS AND PROPORTIONS :    1, 0.71       2, 0.29
  4491 1567-27-15      27    15.00       2301.    
     MULTIPLE LAYERS AND PROPORTIONS :    1, 0.71       2, 0.29
  4492 1567-32-65      32    65.00       2290.    
     MULTIPLE LAYERS AND PROPORTIONS :    1, 0.71       2, 0.29
  4493 1578-42-362     42    362.0       2258.    
  4494 1579-34-182     34    182.0       2273.    
     MULTIPLE LAYERS AND PROPORTIONS :    1, 0.20       2, 0.80
  4495 1466-12-96      12    96.00       2355.    
  4496 1466-17-89      17    89.00       2342.    
  4497 1466-32-60      32    60.00       2285.    
  4498 1466-37-89      37    89.00       2283.    
  4499 1466-42-363     42    363.0       2278.    
  4500 1466-48-357     48    357.0       2273.    
  4501 1466-56-25      56    25.00       2260.    
  4502 1466-71-365     71    365.0       2262.    
  4503 1467-17-89      17    89.00       2339.    
  4504 1467-22-60      22    60.00       2341.    
  4505 1467-48-357     48    357.0       2284.    
  4506 1467-56-25      56    25.00       2271.    
  4507 1467-60-351     60    351.0       2249.    
  4508 1467-65-355     65    355.0       2244.    
  4509 1467-71-52      71    52.00       2248.    
  4510 1467-71-365     71    365.0       2251.    
  4511 1470-17-82      17    82.00       2358.    
  4512 1470-22-82      22    82.00       2341.    
  4513 1470-42-362     42    362.0       2281.    
  4514 1470-48-357     48    357.0       2261.    
  4515 1470-56-18      56    18.00       2245.    
  4516 1470-60-308     60    308.0       2248.    
  4517 1470-71-365     71    365.0       2236.    
  4518 1500-27-60      27    60.00       2313.    
     MULTIPLE LAYERS AND PROPORTIONS :    1, 0.32       2, 0.68
  4519 1500-42-362     42    362.0       2271.    
     MULTIPLE LAYERS AND PROPORTIONS :    1, 0.32       2, 0.68
  4520 1500-48-357     48    357.0       2256.    
     MULTIPLE LAYERS AND PROPORTIONS :    1, 0.32       2, 0.68
  4521 1500-56-25      56    25.00       2238.    
     MULTIPLE LAYERS AND PROPORTIONS :    1, 0.32       2, 0.68
  4522 1500-60-351     60    351.0       2226.    
     MULTIPLE LAYERS AND PROPORTIONS :    1, 0.32       2, 0.68
  4523 1459-11-68      11    68.00       2372.    
  4524 1459-17-82      17    82.00       2352.    
  4525 1459-22-60      22    60.00       2338.    
  4526 1459-26-293     26    293.0       2313.    
  4527 1459-42-363     42    363.0       2281.    
  4528 1459-48-357     48    357.0       2271.    
  4529 1459-56-25      56    25.00       2257.    
  4530 1459-60-351     60    351.0       2245.    
  4531 1459-66-12      66    12.00       2239.    
  4532 1459-71-365     71    365.0       2240.    
  4533 1455-12-96      12    96.00       2383.    
  4534 1455-17-82      17    82.00       2366.    
  4535 1443-12-96      12    96.00       2386.    
  4536 1443-17-82      17    82.00       2368.    
  4537 1443-32-60      32    60.00       2324.    
  4538 1443-38-60      38    60.00       2317.    
  4539 1443-42-364     42    364.0       2288.    
  4540 1443-48-341     48    341.0       2308.    
  4541 1486-56-56      56    56.00       2255.    
  4542 1486-71-365     71    365.0       2233.    
  4543 1485-71-365     71    365.0       2233.    
  4544 1475-11-305     11    305.0       2358.    
  4545 1465-17-82      17    82.00       2367.    
  4546 1465-22-82      22    82.00       2351.    
  4547 1465-42-356     42    356.0       2285.    
  4548 1465-48-355     48    355.0       2273.    
  4549 1465-56-25      56    25.00       2256.    
  4550 1465-60-351     60    351.0       2237.    
  4551 1465-66-1       66   1.0000       2234.    
  4552 1465-71-365     71    365.0       2240.    
  4553 1440-17-82      17    82.00       2373.    
     MULTIPLE LAYERS AND PROPORTIONS :    1, 0.14       2, 0.86
  4554 1440-22-80      22    80.00       2355.    
     MULTIPLE LAYERS AND PROPORTIONS :    1, 0.14       2, 0.86
  4555 1440-32-60      32    60.00       2326.    
     MULTIPLE LAYERS AND PROPORTIONS :    1, 0.14       2, 0.86
  4556 1440-37-90      37    90.00       2301.    
     MULTIPLE LAYERS AND PROPORTIONS :    1, 0.14       2, 0.86
  4557 1440-48-355     48    355.0       2276.    
     MULTIPLE LAYERS AND PROPORTIONS :    1, 0.14       2, 0.86
  4558 1441-11-283     11    283.0       2409.    
     MULTIPLE LAYERS AND PROPORTIONS :    1, 0.79       2, 0.21
  4559 1474-17-87      17    87.00       2384.    
  4560 1474-22-80      22    80.00       2367.    
  4561 1474-61-31      61    31.00       2235.    
  4562 1474-71-68      71    68.00       2238.    
  4563 1474-71-365     71    365.0       2238.    
  4564 1478-48-355     48    355.0       2282.    
     MULTIPLE LAYERS AND PROPORTIONS :    1, 0.27       2, 0.73
  4565 1478-56-26      56    26.00       2259.    
     MULTIPLE LAYERS AND PROPORTIONS :    1, 0.27       2, 0.73
  4566 1478-60-350     60    350.0       2238.    
     MULTIPLE LAYERS AND PROPORTIONS :    1, 0.27       2, 0.73
  4567 1478-65-355     65    355.0       2224.    
     MULTIPLE LAYERS AND PROPORTIONS :    1, 0.27       2, 0.73
  4568 1478-71-68      71    68.00       2237.    
     MULTIPLE LAYERS AND PROPORTIONS :    1, 0.27       2, 0.73
  4569 1478-71-365     71    365.0       2238.    
     MULTIPLE LAYERS AND PROPORTIONS :    1, 0.27       2, 0.73
  4570 1453-17-85      17    85.00       2382.    
  4571 1453-22-80      22    80.00       2362.    
  4572 1453-42-356     42    356.0       2296.    
  4573 1453-48-355     48    355.0       2280.    
  4574 1453-66-49      66    49.00       2244.    
  4575 1453-71-68      71    68.00       2245.    
  4576 1453-71-365     71    365.0       2244.    
  4577 1454-42-356     42    356.0       2295.    
     MULTIPLE LAYERS AND PROPORTIONS :    1, 0.11       2, 0.89
  4578 1454-48-355     48    355.0       2279.    
     MULTIPLE LAYERS AND PROPORTIONS :    1, 0.11       2, 0.89
  4579 1454-55-362     55    362.0       2264.    
     MULTIPLE LAYERS AND PROPORTIONS :    1, 0.11       2, 0.89
  4580 1454-61-31      61    31.00       2239.    
     MULTIPLE LAYERS AND PROPORTIONS :    1, 0.11       2, 0.89
  4581 1454-66-49      66    49.00       2238.    
     MULTIPLE LAYERS AND PROPORTIONS :    1, 0.11       2, 0.89
  4582 1454-71-68      71    68.00       2244.    
     MULTIPLE LAYERS AND PROPORTIONS :    1, 0.11       2, 0.89
  4583 1454-71-365     71    365.0       2244.    
     MULTIPLE LAYERS AND PROPORTIONS :    1, 0.11       2, 0.89
  4584 1447-66-49      66    49.00       2234.    
  4585 1447-71-68      71    68.00       2240.    
  4586 1447-71-365     71    365.0       2241.    
  4587 1444-42-356     42    356.0       2300.    
     MULTIPLE LAYERS AND PROPORTIONS :    1, 0.65       2, 0.35
  4588 1444-48-355     48    355.0       2280.    
     MULTIPLE LAYERS AND PROPORTIONS :    1, 0.65       2, 0.35
  4589 1444-55-362     55    362.0       2266.    
     MULTIPLE LAYERS AND PROPORTIONS :    1, 0.65       2, 0.35
  4590 1444-61-6       61    6.000       2244.    
     MULTIPLE LAYERS AND PROPORTIONS :    1, 0.65       2, 0.35
  4591 1444-66-49      66    49.00       2245.    
     MULTIPLE LAYERS AND PROPORTIONS :    1, 0.65       2, 0.35
  4592 1444-71-68      71    68.00       2248.    
     MULTIPLE LAYERS AND PROPORTIONS :    1, 0.65       2, 0.35
  4593 1444-71-365     71    365.0       2249.    
     MULTIPLE LAYERS AND PROPORTIONS :    1, 0.65       2, 0.35
  4594 1499-11-360     11    360.0       2412.    
     MULTIPLE LAYERS AND PROPORTIONS :    1, 0.37       2, 0.63
  4595 1499-17-85      17    85.00       2392.    
     MULTIPLE LAYERS AND PROPORTIONS :    1, 0.37       2, 0.63
  4596 1499-22-81      22    81.00       2373.    
     MULTIPLE LAYERS AND PROPORTIONS :    1, 0.37       2, 0.63
  4597 1499-48-355     48    355.0       2278.    
     MULTIPLE LAYERS AND PROPORTIONS :    1, 0.37       2, 0.63
  4598 1499-56-20      56    20.00       2259.    
     MULTIPLE LAYERS AND PROPORTIONS :    1, 0.37       2, 0.63
  4599 1499-60-350     60    350.0       2237.    
     MULTIPLE LAYERS AND PROPORTIONS :    1, 0.37       2, 0.63
  4600 1499-66-14      66    14.00       2227.    
     MULTIPLE LAYERS AND PROPORTIONS :    1, 0.37       2, 0.63
  4601 1499-71-64      71    64.00       2230.    
     MULTIPLE LAYERS AND PROPORTIONS :    1, 0.37       2, 0.63
  4602 1499-71-365     71    365.0       2231.    
     MULTIPLE LAYERS AND PROPORTIONS :    1, 0.37       2, 0.63
  4603 1490-66-45      66    45.00       2231.    
  4604 1490-71-64      71    64.00       2237.    
  4605 1490-71-365     71    365.0       2236.    
  4606 1436-71-64      71    64.00       2247.    
  4607 1436-71-365     71    365.0       2247.    
  4608 1488-17-87      17    87.00       2396.    
  4609 1488-22-81      22    81.00       2374.    
  4610 1488-48-350     48    350.0       2281.    
  4611 1488-56-20      56    20.00       2281.    
  4612 1502-17-85      17    85.00       2394.    
     MULTIPLE LAYERS AND PROPORTIONS :    1, 0.40       2, 0.60
  4613 1502-22-81      22    81.00       2374.    
     MULTIPLE LAYERS AND PROPORTIONS :    1, 0.40       2, 0.60
  4614 1502-48-365     48    365.0       2275.    
  4615 1502-56-20      56    20.00       2259.    
  4616 1502-60-350     60    350.0       2239.    
  4617 1502-66-46      66    46.00       2231.    
     MULTIPLE LAYERS AND PROPORTIONS :    1, 0.40       2, 0.60
  4618 1502-71-54      71    54.00       2236.    
     MULTIPLE LAYERS AND PROPORTIONS :    1, 0.40       2, 0.60
  4619 1502-71-365     71    365.0       2237.    
     MULTIPLE LAYERS AND PROPORTIONS :    1, 0.40       2, 0.60
  4620 1477-8-69        8    69.00       2422.    
  4621 1477-12-96      12    96.00       2416.    
  4622 1477-17-86      17    86.00       2396.    
  4623 1477-22-81      22    81.00       2375.    
  4624 1477-32-60      32    60.00       2339.    
  4625 1458-17-85      17    85.00       2403.    
  4626 1458-22-81      22    81.00       2374.    
  4627 1458-42-355     42    355.0       2307.    
  4628 1458-48-350     48    350.0       2294.    
  4629 1458-56-20      56    20.00       2293.    
  4630 1458-60-350     60    350.0       2267.    
  4631 1458-71-64      71    64.00       2254.    
  4632 1458-71-365     71    365.0       2254.    
  4633 1460-66-1       66   1.0000       2248.    
  4634 1460-71-64      71    64.00       2252.    
  4635 1460-71-365     71    365.0       2252.    
  4636 1429-17-85      17    85.00       2413.    
     MULTIPLE LAYERS AND PROPORTIONS :    1, 0.19       2, 0.81
  4637 1429-22-81      22    81.00       2380.    
     MULTIPLE LAYERS AND PROPORTIONS :    1, 0.19       2, 0.81
  4638 1429-42-355     42    355.0       2327.    
     MULTIPLE LAYERS AND PROPORTIONS :    1, 0.19       2, 0.81
  4639 1429-48-350     48    350.0       2319.    
     MULTIPLE LAYERS AND PROPORTIONS :    1, 0.19       2, 0.81
  4640 1429-56-20      56    20.00       2319.    
     MULTIPLE LAYERS AND PROPORTIONS :    1, 0.19       2, 0.81
  4641 1429-60-350     60    350.0       2295.    
     MULTIPLE LAYERS AND PROPORTIONS :    1, 0.19       2, 0.81
  4642 1429-66-53      66    53.00       2283.    
     MULTIPLE LAYERS AND PROPORTIONS :    1, 0.19       2, 0.81
  4643 1429-71-13      71    13.00       2281.    
     MULTIPLE LAYERS AND PROPORTIONS :    1, 0.19       2, 0.81
  4644 1429-71-365     71    365.0       2281.    
     MULTIPLE LAYERS AND PROPORTIONS :    1, 0.19       2, 0.81
  4645 1431-17-85      17    85.00       2421.    
  4646 1431-22-82      22    82.00       2385.    
  4647 1431-27-63      27    63.00       2379.    
  4648 1431-32-60      32    60.00       2360.    
  4649 1431-42-355     42    355.0       2337.    
  4650 1431-48-350     48    350.0       2329.    
  4651 1431-56-20      56    20.00       2334.    
  4652 1431-60-350     60    350.0       2307.    
  4653 1431-71-13      71    13.00       2294.    
  4654 1431-71-365     71    365.0       2293.    
  4655 1392-16-363     16    363.0       2419.    
     MULTIPLE LAYERS AND PROPORTIONS :    1, 0.57       2, 0.43
  4656 1397-22-80      22    80.00       2377.    
     MULTIPLE LAYERS AND PROPORTIONS :    1, 0.60       2, 0.40
  4657 1397-42-355     42    355.0       2303.    
     MULTIPLE LAYERS AND PROPORTIONS :    1, 0.60       2, 0.40
  4658 1397-48-355     48    355.0       2297.    
     MULTIPLE LAYERS AND PROPORTIONS :    1, 0.60       2, 0.40
  4659 1397-55-361     55    361.0       2287.    
     MULTIPLE LAYERS AND PROPORTIONS :    1, 0.60       2, 0.40
  4660 1397-61-14      61    14.00       2271.    
     MULTIPLE LAYERS AND PROPORTIONS :    1, 0.60       2, 0.40
  4661 1397-66-12      66    12.00       2261.    
     MULTIPLE LAYERS AND PROPORTIONS :    1, 0.60       2, 0.40
  4662 1397-71-68      71    68.00       2263.    
     MULTIPLE LAYERS AND PROPORTIONS :    1, 0.60       2, 0.40
  4663 1397-71-365     71    365.0       2262.    
     MULTIPLE LAYERS AND PROPORTIONS :    1, 0.60       2, 0.40
  4664 1426-12-95      12    95.00       2393.    
     MULTIPLE LAYERS AND PROPORTIONS :    1, 0.10       2, 0.90
  4665 1426-17-82      17    82.00       2374.    
     MULTIPLE LAYERS AND PROPORTIONS :    1, 0.10       2, 0.90
  4666 1426-22-80      22    80.00       2353.    
     MULTIPLE LAYERS AND PROPORTIONS :    1, 0.10       2, 0.90
  4667 1426-26-288     26    288.0       2333.    
     MULTIPLE LAYERS AND PROPORTIONS :    1, 0.10       2, 0.90
  4668 1426-42-356     42    356.0       2289.    
     MULTIPLE LAYERS AND PROPORTIONS :    1, 0.10       2, 0.90
  4669 1426-48-355     48    355.0       2280.    
     MULTIPLE LAYERS AND PROPORTIONS :    1, 0.10       2, 0.90
  4670 1426-55-350     55    350.0       2272.    
     MULTIPLE LAYERS AND PROPORTIONS :    1, 0.10       2, 0.90
  4671 1426-61-13      61    13.00       2254.    
     MULTIPLE LAYERS AND PROPORTIONS :    1, 0.10       2, 0.90
  4672 1426-66-12      66    12.00       2248.    
     MULTIPLE LAYERS AND PROPORTIONS :    1, 0.10       2, 0.90
  4673 1426-71-54      71    54.00       2251.    
     MULTIPLE LAYERS AND PROPORTIONS :    1, 0.10       2, 0.90
  4674 1426-71-365     71    365.0       2251.    
     MULTIPLE LAYERS AND PROPORTIONS :    1, 0.10       2, 0.90
  4675 1411-56-25      56    25.00       2327.    
  4676 1411-61-42      61    42.00       2256.    
  4677 1411-66-12      66    12.00       2261.    
  4678 1411-71-54      71    54.00       2264.    
  4679 1411-71-365     71    365.0       2265.    
  4680 1409-61-42      61    42.00       2252.    
     MULTIPLE LAYERS AND PROPORTIONS :    1, 0.97       2, 0.03
  4681 1409-66-12      66    12.00       2255.    
     MULTIPLE LAYERS AND PROPORTIONS :    1, 0.97       2, 0.03
  4682 1409-71-54      71    54.00       2259.    
     MULTIPLE LAYERS AND PROPORTIONS :    1, 0.97       2, 0.03
  4683 1409-71-365     71    365.0       2259.    
     MULTIPLE LAYERS AND PROPORTIONS :    1, 0.97       2, 0.03
  4684 1390-71-68      71    68.00       2273.    
     MULTIPLE LAYERS AND PROPORTIONS :    1, 0.42       2, 0.58
  4685 1390-71-362     71    362.0       2274.    
     MULTIPLE LAYERS AND PROPORTIONS :    1, 0.42       2, 0.58
  4686 1416-71-1       71   1.0000       2345.    
     MULTIPLE LAYERS AND PROPORTIONS :    1, 0.72       2, 0.28
  4687 1372-66-5       66    5.000       2260.    
  4688 1372-71-68      71    68.00       2266.    
  4689 1372-71-362     71    362.0       2267.    
  4690 1312-12-265     12    265.0       2428.    
  4691 1332-71-13      71    13.00       2268.    
  4692 1332-71-362     71    362.0       2269.    
  4693 1359-32-69      32    69.00       2369.    
     MULTIPLE LAYERS AND PROPORTIONS :    1, 0.54       2, 0.46
  4694 1359-37-95      37    95.00       2357.    
     MULTIPLE LAYERS AND PROPORTIONS :    1, 0.54       2, 0.46
  4695 1359-42-356     42    356.0       2342.    
     MULTIPLE LAYERS AND PROPORTIONS :    1, 0.54       2, 0.46
  4696 1359-48-334     48    334.0       2340.    
     MULTIPLE LAYERS AND PROPORTIONS :    1, 0.54       2, 0.46
  4697 1359-56-19      56    19.00       2336.    
     MULTIPLE LAYERS AND PROPORTIONS :    1, 0.54       2, 0.46
  4698 1359-60-321     60    321.0       2328.    
     MULTIPLE LAYERS AND PROPORTIONS :    1, 0.54       2, 0.46
  4699 1359-65-298     65    298.0       2316.    
     MULTIPLE LAYERS AND PROPORTIONS :    1, 0.54       2, 0.46
  4700 1359-71-14      71    14.00       2311.    
     MULTIPLE LAYERS AND PROPORTIONS :    1, 0.54       2, 0.46
  4701 1359-71-365     71    365.0       2310.    
     MULTIPLE LAYERS AND PROPORTIONS :    1, 0.54       2, 0.46
  4702 1333-7-28        7    28.00       2444.    
     MULTIPLE LAYERS AND PROPORTIONS :    1, 0.51       2, 0.49
  4703 1333-12-95      12    95.00       2441.    
     MULTIPLE LAYERS AND PROPORTIONS :    1, 0.51       2, 0.49
  4704 1333-17-87      17    87.00       2429.    
     MULTIPLE LAYERS AND PROPORTIONS :    1, 0.51       2, 0.49
  4705 1333-32-69      32    69.00       2376.    
     MULTIPLE LAYERS AND PROPORTIONS :    1, 0.51       2, 0.49
  4706 1333-56-19      56    19.00       2338.    
  4707 1333-61-60      61    60.00       2326.    
  4708 1333-66-25      66    25.00       2318.    
  4709 1355-32-69      32    69.00       2393.    
  4710 1355-37-95      37    95.00       2380.    
  4711 1355-42-356     42    356.0       2364.    
  4712 1355-48-344     48    344.0       2361.    
  4713 1355-56-19      56    19.00       2358.    
  4714 1355-61-60      61    60.00       2344.    
  4715 1355-66-25      66    25.00       2340.    
  4716 1355-71-40      71    40.00       2336.    
  4717 1295-32-69      32    69.00       2390.    
  4718 1295-37-95      37    95.00       2371.    
  4719 1295-42-355     42    355.0       2349.    
  4720 1295-56-19      56    19.00       2349.    
  4721 1295-61-60      61    60.00       2339.    
  4722 1289-48-344     48    344.0       2368.    
  4723 1289-56-20      56    20.00       2364.    
  4724 1289-61-60      61    60.00       2350.    
  4725 1289-66-25      66    25.00       2344.    
  4726 1289-71-40      71    40.00       2343.    
  4727 1856-33-79      33    79.00       2578.    
  4728 1866-42-356     42    356.0       2576.    
  4729 1866-48-348     48    348.0       2579.    
  4730 1866-55-347     55    347.0       2585.    
  4731 1866-60-356     60    356.0       2566.    
  4732 1866-66-5       66    5.000       2562.    
     MULTIPLE LAYERS AND PROPORTIONS :    1, 0.49       2, 0.51
  4733 1866-71-39      71    39.00       2575.    
     MULTIPLE LAYERS AND PROPORTIONS :    1, 0.49       2, 0.51
  4734 1866-71-41      71    41.00       2576.    
     MULTIPLE LAYERS AND PROPORTIONS :    1, 0.49       2, 0.51
  4735 1866-71-365     71    365.0       2573.    
     MULTIPLE LAYERS AND PROPORTIONS :    1, 0.49       2, 0.51
  4736 1859-55-347     55    347.0       2584.    
  4737 1859-66-33      66    33.00       2569.    
     MULTIPLE LAYERS AND PROPORTIONS :    1, 0.48       2, 0.52
  4738 1860-42-356     42    356.0       2576.    
  4739 1860-48-348     48    348.0       2583.    
  4740 1860-56-5       56    5.000       2587.    
  4741 1860-66-5       66    5.000       2561.    
  4742 1860-71-365     71    365.0       2572.    
  4743 1867-66-5       66    5.000       2564.    
  4744 1867-71-365     71    365.0       2574.    
  4745 1855-66-5       66    5.000       2562.    
  4746 1855-71-365     71    365.0       2571.    
  4747 1876-42-362     42    362.0       2512.    
  4748 1876-48-338     48    338.0       2505.    
  4749 1876-56-16      56    16.00       2507.    
  4750 1750-56-16      56    16.00       2540.    
  4751 1750-61-53      61    53.00       2526.    
  4752 1750-66-27      66    27.00       2459.    
  4753 1730-56-16      56    16.00       2519.    
  4754 1730-61-53      61    53.00       2488.    
  4755 1730-66-31      66    31.00       2447.    
  4756 1835-22-32      22    32.00       2566.    
  4757 1835-27-12      27    12.00       2578.    
  4758 1831-1-365       1    365.0       2572.    
 Observation within a steady-state time step has been moved to the end of the time step.
  4759 1801-22-32      22    32.00       2571.    
  4760 1801-27-12      27    12.00       2578.    
  4761 1739-56-16      56    16.00       2543.    
  4762 1739-61-53      61    53.00       2512.    
  4763 1739-66-27      66    27.00       2470.    
  4764 1725-66-12      66    12.00       2427.    
  4765 1725-71-365     71    365.0       2444.    
  4766 1761-27-17      27    17.00       2560.    
  4767 1761-32-60      32    60.00       2546.    
  4768 1761-42-355     42    355.0       2538.    
  4769 1761-48-350     48    350.0       2547.    
  4770 1761-56-6       56    6.000       2565.    
  4771 1761-66-1       66   1.0000       2523.    
  4772 1761-71-35      71    35.00       2531.    
  4773 1761-71-365     71    365.0       2527.    
  4774 1774-48-365     48    365.0       2512.    
     MULTIPLE LAYERS AND PROPORTIONS :    2, 0.68       3, 0.32
  4775 1774-56-5       56    5.000       2517.    
     MULTIPLE LAYERS AND PROPORTIONS :    2, 0.68       3, 0.32
  4776 1774-66-1       66   1.0000       2441.    
     MULTIPLE LAYERS AND PROPORTIONS :    2, 0.68       3, 0.32
  4777 1774-71-35      71    35.00       2455.    
     MULTIPLE LAYERS AND PROPORTIONS :    2, 0.68       3, 0.32
  4778 1774-71-365     71    365.0       2470.    
     MULTIPLE LAYERS AND PROPORTIONS :    2, 0.68       3, 0.32
  4779 1740-1-365       1    365.0       2556.    
 Observation within a steady-state time step has been moved to the end of the time step.
  4780 1740-16-356     16    356.0       2564.    
  4781 1853-42-357     42    357.0       2500.    
     MULTIPLE LAYERS AND PROPORTIONS :    1, 0.75       2, 0.25
  4782 1850-48-338     48    338.0       2494.    
  4783 1850-56-16      56    16.00       2506.    
  4784 1850-66-31      66    31.00       2432.    
  4785 1850-71-40      71    40.00       2432.    
  4786 1895-16-362     16    362.0       2491.    
  4787 1895-22-32      22    32.00       2496.    
  4788 1895-27-12      27    12.00       2495.    
  4789 1737-43-32      43    32.00       2452.    
  4790 1737-48-355     48    355.0       2449.    
  4791 1737-56-5       56    5.000       2450.    
  4792 1737-61-26      61    26.00       2416.    
  4793 1737-66-28      66    28.00       2390.    
  4794 1737-71-35      71    35.00       2403.    
  4795 1737-71-365     71    365.0       2410.    
  4796 1802-1-276       1    276.0       2517.    
 Observation within a steady-state time step has been moved to the end of the time step.
  4797 1802-4-104       4    104.0       2524.    
  4798 1746-42-355     42    355.0       2492.    
  4799 1746-48-355     48    355.0       2485.    
  4800 1746-56-11      56    11.00       2478.    
  4801 1746-61-33      61    33.00       2448.    
  4802 1746-66-28      66    28.00       2423.    
  4803 1746-71-33      71    33.00       2429.    
  4804 1746-71-344     71    344.0       2436.    
  4805 1940-42-355     42    355.0       2460.    
     MULTIPLE LAYERS AND PROPORTIONS :    1, 0.24       2, 0.76
  4806 1940-48-355     48    355.0       2452.    
     MULTIPLE LAYERS AND PROPORTIONS :    1, 0.24       2, 0.76
  4807 1940-56-5       56    5.000       2458.    
     MULTIPLE LAYERS AND PROPORTIONS :    1, 0.24       2, 0.76
  4808 1940-66-1       66   1.0000       2399.    
     MULTIPLE LAYERS AND PROPORTIONS :    1, 0.24       2, 0.76
  4809 1940-71-35      71    35.00       2414.    
     MULTIPLE LAYERS AND PROPORTIONS :    1, 0.24       2, 0.76
  4810 1940-71-365     71    365.0       2425.    
     MULTIPLE LAYERS AND PROPORTIONS :    1, 0.24       2, 0.76
  4811 1925-48-355     48    355.0       2454.    
  4812 1925-56-5       56    5.000       2452.    
  4813 1925-61-26      61    26.00       2430.    
  4814 1925-66-32      66    32.00       2401.    
  4815 1925-71-35      71    35.00       2415.    
  4816 1925-71-365     71    365.0       2425.    
  4817 1733-2-93        2    93.00       2454.    
  4818 1732-12-114     12    114.0       2492.    
  4819 1732-16-362     16    362.0       2487.    
  4820 1732-27-90      27    90.00       2488.    
  4821 1732-32-60      32    60.00       2477.    
  4822 1732-42-357     42    357.0       2451.    
  4823 1732-48-341     48    341.0       2442.    
  4824 1732-56-16      56    16.00       2442.    
  4825 1809-48-355     48    355.0       2456.    
  4826 1809-55-346     55    346.0       2445.    
  4827 1809-60-364     60    364.0       2416.    
  4828 1809-66-28      66    28.00       2392.    
  4829 1809-71-39      71    39.00       2404.    
  4830 1809-71-365     71    365.0       2410.    
  4831 1731-56-5       56    5.000       2444.    
  4832 1731-60-351     60    351.0       2411.    
  4833 1731-65-364     65    364.0       2388.    
  4834 1731-71-35      71    35.00       2402.    
  4835 1731-71-365     71    365.0       2409.    
  4836 1915-56-13      56    13.00       2454.    
  4837 1915-60-351     60    351.0       2434.    
  4838 1915-66-32      66    32.00       2406.    
  4839 1915-71-55      71    55.00       2421.    
  4840 1915-71-365     71    365.0       2430.    
  4841 1869-1-365       1    365.0       2488.    
 Observation within a steady-state time step has been moved to the end of the time step.
  4842 1884-1-52        1    52.00       2488.    
 Observation within a steady-state time step has been moved to the end of the time step.
  4843 1910-66-32      66    32.00       2249.    
  4844 1910-71-365     71    365.0       2261.    
  4845 1887-66-32      66    32.00       2240.    
  4846 1887-71-365     71    365.0       2251.    
  4847 1854-66-48      66    48.00       2237.    
  4848 1885-7-322       7    322.0       2430.    
  4849 1885-12-116     12    116.0       2429.    
  4850 1790-66-48      66    48.00       2237.    
  4851 1836-66-48      66    48.00       2246.    
  4852 1783-66-48      66    48.00       2233.    
  4853 1846-48-355     48    355.0       2447.    
  4854 1846-55-327     55    327.0       2443.    
  4855 1846-61-14      61    14.00       2423.    
  4856 1846-66-48      66    48.00       2393.    
  4857 1846-71-365     71    365.0       2419.    
  4858 1845-48-355     48    355.0       2280.    
  4859 1845-55-360     55    360.0       2260.    
  4860 1845-61-11      61    11.00       2236.    
  4861 1845-66-32      66    32.00       2236.    
  4862 1845-71-365     71    365.0       2248.    
  4863 1916-56-5       56    5.000       2280.    
     MULTIPLE LAYERS AND PROPORTIONS :    1, 0.21       2, 0.79
  4864 1916-66-32      66    32.00       2252.    
     MULTIPLE LAYERS AND PROPORTIONS :    1, 0.21       2, 0.79
  4865 1916-71-365     71    365.0       2266.    
     MULTIPLE LAYERS AND PROPORTIONS :    1, 0.21       2, 0.79
  4866 1911-56-5       56    5.000       2277.    
  4867 1911-66-32      66    32.00       2249.    
  4868 1911-71-365     71    365.0       2265.    
  4869 1897-12-114     12    114.0       2444.    
  4870 1897-27-10      27   10.000       2398.    
  4871 1893-66-32      66    32.00       2242.    
  4872 1893-71-365     71    365.0       2255.    
  4873 1917-48-355     48    355.0       2276.    
  4874 1917-66-32      66    32.00       2225.    
  4875 1917-71-344     71    344.0       2242.    
  4876 1672-66-45      66    45.00       2225.    
  4877 1647-12-332     12    332.0       2378.    
  4878 1647-16-355     16    355.0       2370.    
  4879 1659-22-81      22    81.00       2389.    
     MULTIPLE LAYERS AND PROPORTIONS :    1, 0.55       2, 0.45
  4880 1659-42-356     42    356.0       2300.    
     MULTIPLE LAYERS AND PROPORTIONS :    1, 0.55       2, 0.45
  4881 1659-48-355     48    355.0       2266.    
  4882 1659-56-6       56    6.000       2251.    
  4883 1659-60-354     60    354.0       2231.    
  4884 1659-66-45      66    45.00       2228.    
     MULTIPLE LAYERS AND PROPORTIONS :    1, 0.55       2, 0.45
  4885 1659-71-365     71    365.0       2239.    
     MULTIPLE LAYERS AND PROPORTIONS :    1, 0.55       2, 0.45
  4886 1682-48-355     48    355.0       2254.    
  4887 1707-42-355     42    355.0       2288.    
  4888 1707-48-355     48    355.0       2254.    
  4889 1707-56-26      56    26.00       2242.    
  4890 1707-60-354     60    354.0       2220.    
  4891 1707-66-45      66    45.00       2218.    
  4892 1707-71-365     71    365.0       2230.    
  4893 1712-42-355     42    355.0       2287.    
  4894 1712-48-355     48    355.0       2252.    
  4895 1712-56-5       56    5.000       2241.    
  4896 1712-61-14      61    14.00       2219.    
  4897 1712-65-355     65    355.0       2216.    
  4898 1712-71-67      71    67.00       2227.    
  4899 1712-71-365     71    365.0       2230.    
  4900 1671-22-79      22    79.00       2383.    
     MULTIPLE LAYERS AND PROPORTIONS :    1, 0.72       2, 0.28
  4901 1671-42-355     42    355.0       2291.    
  4902 1671-48-355     48    355.0       2257.    
  4903 1671-56-20      56    20.00       2242.    
  4904 1627-22-82      22    82.00       2391.    
  4905 1627-32-90      32    90.00       2353.    
  4906 1627-37-90      37    90.00       2326.    
  4907 1627-42-356     42    356.0       2305.    
  4908 1627-48-350     48    350.0       2268.    
  4909 1627-55-360     55    360.0       2254.    
  4910 1627-61-12      61    12.00       2234.    
  4911 1627-66-1       66   1.0000       2232.    
  4912 1627-71-53      71    53.00       2240.    
  4913 1627-71-365     71    365.0       2243.    
  4914 1607-1-276       1    276.0       2426.    
 Observation within a steady-state time step has been moved to the end of the time step.
     MULTIPLE LAYERS AND PROPORTIONS :    1, 0.88       2, 0.12
  4915 1607-6-269       6    269.0       2424.    
     MULTIPLE LAYERS AND PROPORTIONS :    1, 0.88       2, 0.12
  4916 1607-11-269     11    269.0       2418.    
     MULTIPLE LAYERS AND PROPORTIONS :    1, 0.88       2, 0.12
  4917 1598-66-45      66    45.00       2231.    
  4918 1643-27-90      27    90.00       2380.    
     MULTIPLE LAYERS AND PROPORTIONS :    1, 0.19       2, 0.81
  4919 1632-22-82      22    82.00       2403.    
  4920 1632-27-15      27    15.00       2382.    
  4921 1632-32-77      32    77.00       2361.    
  4922 1632-42-356     42    356.0       2316.    
  4923 1632-48-355     48    355.0       2282.    
  4924 1632-56-6       56    6.000       2266.    
  4925 1632-60-354     60    354.0       2245.    
  4926 1632-66-48      66    48.00       2242.    
  4927 1632-71-53      71    53.00       2250.    
  4928 1632-71-365     71    365.0       2253.    
  4929 1677-32-64      32    64.00       2477.    
  4930 1677-42-355     42    355.0       2451.    
  4931 1677-48-351     48    351.0       2439.    
  4932 1677-56-5       56    5.000       2443.    
  4933 1677-61-26      61    26.00       2407.    
  4934 1677-66-39      66    39.00       2386.    
  4935 1677-71-35      71    35.00       2403.    
  4936 1677-71-365     71    365.0       2408.    
  4937 1646-27-90      27    90.00       2489.    
  4938 1646-32-64      32    64.00       2482.    
  4939 1646-42-355     42    355.0       2446.    
  4940 1646-48-350     48    350.0       2434.    
  4941 1646-56-5       56    5.000       2437.    
  4942 1646-61-26      61    26.00       2402.    
  4943 1646-66-39      66    39.00       2382.    
  4944 1646-71-39      71    39.00       2400.    
  4945 1646-71-365     71    365.0       2406.    
  4946 1602-42-355     42    355.0       2336.    
  4947 1602-48-350     48    350.0       2264.    
  4948 1602-71-35      71    35.00       2252.    
  4949 1602-71-365     71    365.0       2254.    
  4950 1601-42-355     42    355.0       2335.    
     MULTIPLE LAYERS AND PROPORTIONS :    2, 0.90       3, 0.10
  4951 1601-48-350     48    350.0       2261.    
     MULTIPLE LAYERS AND PROPORTIONS :    2, 0.90       3, 0.10
  4952 1601-55-348     55    348.0       2268.    
     MULTIPLE LAYERS AND PROPORTIONS :    2, 0.90       3, 0.10
  4953 1601-61-14      61    14.00       2211.    
     MULTIPLE LAYERS AND PROPORTIONS :    2, 0.90       3, 0.10
  4954 1601-66-19      66    19.00       2208.    
     MULTIPLE LAYERS AND PROPORTIONS :    2, 0.90       3, 0.10
  4955 1601-71-35      71    35.00       2254.    
     MULTIPLE LAYERS AND PROPORTIONS :    2, 0.90       3, 0.10
  4956 1601-71-365     71    365.0       2255.    
  4957 1674-10-253     10    253.0       2532.    
  4958 1676-42-355     42    355.0       2484.    
  4959 1676-48-350     48    350.0       2487.    
  4960 1676-55-349     55    349.0       2473.    
  4961 1676-61-27      61    27.00       2442.    
  4962 1676-66-19      66    19.00       2415.    
  4963 1676-71-35      71    35.00       2419.    
  4964 1676-71-365     71    365.0       2429.    
  4965 1645-32-77      32    77.00       2486.    
  4966 1645-42-355     42    355.0       2454.    
  4967 1645-55-360     55    360.0       2447.    
  4968 1645-60-356     60    356.0       2411.    
  4969 1645-66-1       66   1.0000       2384.    
  4970 1645-71-35      71    35.00       2400.    
  4971 1645-71-365     71    365.0       2406.    
  4972 1604-32-77      32    77.00       2471.    
  4973 1604-42-355     42    355.0       2439.    
  4974 1604-48-350     48    350.0       2422.    
  4975 1604-55-360     55    360.0       2425.    
  4976 1604-60-362     60    362.0       2397.    
  4977 1604-71-48      71    48.00       2392.    
  4978 1604-71-365     71    365.0       2295.    
  4979 1640-55-360     55    360.0       2486.    
     MULTIPLE LAYERS AND PROPORTIONS :    2, 0.86       3, 0.14
  4980 1640-60-356     60    356.0       2455.    
     MULTIPLE LAYERS AND PROPORTIONS :    2, 0.86       3, 0.14
  4981 1640-66-19      66    19.00       2415.    
     MULTIPLE LAYERS AND PROPORTIONS :    2, 0.86       3, 0.14
  4982 1640-71-22      71    22.00       2426.    
     MULTIPLE LAYERS AND PROPORTIONS :    2, 0.86       3, 0.14
  4983 1640-71-365     71    365.0       2433.    
     MULTIPLE LAYERS AND PROPORTIONS :    2, 0.86       3, 0.14
  4984 1720-66-5       66    5.000       2502.    
  4985 1720-71-22      71    22.00       2498.    
  4986 1720-71-365     71    365.0       2505.    
  4987 1706-33-318     33    318.0       2550.    
  4988 1669-7-32        7    32.00       2537.    
  4989 1669-12-106     12    106.0       2531.    
  4990 1669-32-68      32    68.00       2527.    
  4991 1669-38-60      38    60.00       2519.    
  4992 1669-42-354     42    354.0       2509.    
  4993 1622-32-68      32    68.00       2527.    
  4994 1622-38-60      38    60.00       2519.    
  4995 1622-42-354     42    354.0       2506.    
  4996 1622-48-341     48    341.0       2497.    
  4997 1622-56-17      56    17.00       2489.    
  4998 1622-61-54      61    54.00       2461.    
  4999 1622-66-32      66    32.00       2420.    
  5000 1556-61-27      61    27.00       2456.    
     MULTIPLE LAYERS AND PROPORTIONS :    2, 0.54       3, 0.46
  5001 1556-66-5       66    5.000       2432.    
     MULTIPLE LAYERS AND PROPORTIONS :    2, 0.54       3, 0.46
  5002 1556-71-22      71    22.00       2436.    
     MULTIPLE LAYERS AND PROPORTIONS :    2, 0.54       3, 0.46
  5003 1556-71-365     71    365.0       2439.    
     MULTIPLE LAYERS AND PROPORTIONS :    2, 0.54       3, 0.46
  5004 1553-7-336       7    336.0       2538.    
  5005 1553-12-106     12    106.0       2533.    
  5006 1553-42-354     42    354.0       2503.    
  5007 1553-48-341     48    341.0       2490.    
  5008 1568-33-234     33    234.0       2528.    
  5009 1568-48-341     48    341.0       2497.    
  5010 1594-71-22      71    22.00       2425.    
  5011 1594-71-365     71    365.0       2432.    
  5012 1563-32-68      32    68.00       2526.    
  5013 1563-37-48      37    48.00       2507.    
  5014 1563-42-355     42    355.0       2500.    
  5015 1563-48-348     48    348.0       2488.    
  5016 1563-56-6       56    6.000       2480.    
  5017 1553-15-99      15    99.00       2533.    
  5018 1522-42-355     42    355.0       2506.    
  5019 1522-48-348     48    348.0       2488.    
  5020 1527-55-354     55    354.0       2475.    
     MULTIPLE LAYERS AND PROPORTIONS :    2, 0.71       3, 0.29
  5021 1527-61-54      61    54.00       2451.    
     MULTIPLE LAYERS AND PROPORTIONS :    2, 0.71       3, 0.29
  5022 1527-66-32      66    32.00       2420.    
     MULTIPLE LAYERS AND PROPORTIONS :    2, 0.71       3, 0.29
  5023 1527-71-22      71    22.00       2426.    
     MULTIPLE LAYERS AND PROPORTIONS :    2, 0.71       3, 0.29
  5024 1527-71-365     71    365.0       2430.    
  5025 1589-42-355     42    355.0       2468.    
  5026 1589-48-350     48    350.0       2453.    
  5027 1589-55-360     55    360.0       2454.    
  5028 1589-61-14      61    14.00       2417.    
  5029 1589-66-32      66    32.00       2394.    
  5030 1589-71-22      71    22.00       2404.    
  5031 1589-71-365     71    365.0       2408.    
  5032 1586-32-68      32    68.00       2475.    
  5033 1586-48-356     48    356.0       2414.    
  5034 1586-56-6       56    6.000       2423.    
  5035 1586-60-356     60    356.0       2377.    
  5036 1586-66-1       66   1.0000       2371.    
  5037 1586-71-35      71    35.00       2390.    
  5038 1586-71-365     71    365.0       2393.    
  5039 1532-42-355     42    355.0       2430.    
  5040 1532-48-348     48    348.0       2407.    
  5041 1532-55-354     55    354.0       2420.    
  5042 1532-61-28      61    28.00       2365.    
  5043 1532-66-46      66    46.00       2371.    
  5044 1532-71-22      71    22.00       2384.    
  5045 1532-71-365     71    365.0       2386.    
  5046 1534-42-355     42    355.0       2432.    
  5047 1534-48-348     48    348.0       2408.    
  5048 1534-55-360     55    360.0       2413.    
  5049 1534-61-5       61    5.000       2374.    
  5050 1534-66-46      66    46.00       2373.    
  5051 1534-71-35      71    35.00       2386.    
  5052 1534-71-365     71    365.0       2388.    
  5053 1524-42-355     42    355.0       2467.    
  5054 1524-48-348     48    348.0       2449.    
  5055 1524-56-6       56    6.000       2450.    
  5056 1524-60-356     60    356.0       2418.    
  5057 1524-66-1       66   1.0000       2399.    
  5058 1524-71-48      71    48.00       2406.    
  5059 1524-71-365     71    365.0       2408.    
  5060 1561-21-340     21    340.0       2488.    
  5061 1561-32-64      32    64.00       2474.    
  5062 1561-42-355     42    355.0       2435.    
  5063 1561-48-350     48    350.0       2413.    
  5064 1561-55-360     55    360.0       2415.    
  5065 1561-61-26      61    26.00       2375.    
  5066 1561-66-46      66    46.00       2370.    
  5067 1561-71-39      71    39.00       2389.    
  5068 1561-71-365     71    365.0       2389.    
  5069 1571-2-94        2    94.00       2432.    
  5070 1572-48-356     48    356.0       2300.    
  5071 1572-56-6       56    6.000       2274.    
  5072 1572-61-26      61    26.00       2244.    
  5073 1572-66-12      66    12.00       2245.    
  5074 1572-71-48      71    48.00       2258.    
  5075 1572-71-365     71    365.0       2261.    
  5076 1549-21-319     21    319.0       2437.    
  5077 1549-56-6       56    6.000       2281.    
  5078 1549-60-356     60    356.0       2224.    
  5079 1549-65-350     65    350.0       2214.    
  5080 1549-71-67      71    67.00       2262.    
  5081 1549-71-365     71    365.0       2261.    
  5082 1547-27-62      27    62.00       2388.    
  5083 1521-42-355     42    355.0       2372.    
  5084 1521-48-350     48    350.0       2352.    
  5085 1521-55-360     55    360.0       2338.    
  5086 1521-60-356     60    356.0       2321.    
  5087 1521-66-46      66    46.00       2311.    
  5088 1521-71-48      71    48.00       2316.    
  5089 1521-71-365     71    365.0       2317.    
  5090 1573-48-356     48    356.0       2281.    
  5091 1573-55-360     55    360.0       2268.    
  5092 1573-60-357     60    357.0       2244.    
  5093 1573-66-54      66    54.00       2243.    
  5094 1573-71-19      71    19.00       2248.    
  5095 1573-71-365     71    365.0       2252.    
  5096 1545-32-77      32    77.00       2351.    
     MULTIPLE LAYERS AND PROPORTIONS :    1, 0.32       2, 0.68
  5097 1545-42-356     42    356.0       2319.    
  5098 1545-48-350     48    350.0       2289.    
  5099 1545-56-11      56    11.00       2270.    
  5100 1545-61-14      61    14.00       2247.    
  5101 1545-66-54      66    54.00       2248.    
  5102 1545-71-19      71    19.00       2254.    
  5103 1545-71-365     71    365.0       2257.    
  5104 1535-42-356     42    356.0       2320.    
  5105 1535-48-350     48    350.0       2292.    
  5106 1535-56-11      56    11.00       2272.    
  5107 1535-60-357     60    357.0       2251.    
  5108 1535-66-47      66    47.00       2250.    
  5109 1535-71-19      71    19.00       2256.    
  5110 1535-71-365     71    365.0       2259.    
  5111 1507-42-356     42    356.0       2326.    
  5112 1507-48-350     48    350.0       2302.    
  5113 1507-56-11      56    11.00       2271.    
  5114 1507-60-357     60    357.0       2251.    
  5115 1507-66-54      66    54.00       2262.    
  5116 1507-71-19      71    19.00       2264.    
  5117 1507-71-365     71    365.0       2267.    
  5118 1523-16-54      16    54.00       2421.    
     MULTIPLE LAYERS AND PROPORTIONS :    1, 0.70       2, 0.30
  5119 1575-22-81      22    81.00       2393.    
  5120 1575-32-77      32    77.00       2347.    
  5121 1575-42-356     42    356.0       2309.    
  5122 1575-48-350     48    350.0       2282.    
  5123 1575-55-343     55    343.0       2259.    
  5124 1575-61-11      61    11.00       2235.    
  5125 1575-71-365     71    365.0       2245.    
  5126 1577-22-81      22    81.00       2388.    
     MULTIPLE LAYERS AND PROPORTIONS :    1, 0.51       2, 0.49
  5127 1580-42-355     42    355.0       2298.    
  5128 1580-48-355     48    355.0       2264.    
  5129 1580-56-13      56    13.00       2247.    
  5130 1580-61-12      61    12.00       2227.    
  5131 1580-66-54      66    54.00       2229.    
  5132 1580-71-365     71    365.0       2239.    
  5133 1536-17-79      17    79.00       2407.    
  5134 1536-22-82      22    82.00       2382.    
  5135 1536-32-77      32    77.00       2338.    
  5136 1536-42-356     42    356.0       2301.    
  5137 1536-48-350     48    350.0       2273.    
  5138 1536-55-340     55    340.0       2255.    
  5139 1536-66-54      66    54.00       2231.    
  5140 1536-71-365     71    365.0       2239.    
  5141 1516-42-356     42    356.0       2308.    
  5142 1516-48-350     48    350.0       2286.    
  5143 1516-56-11      56    11.00       2261.    
  5144 1516-61-27      61    27.00       2234.    
  5145 1516-66-54      66    54.00       2242.    
  5146 1516-71-365     71    365.0       2249.    
  5147 1528-22-82      22    82.00       2382.    
  5148 1528-27-63      27    63.00       2368.    
  5149 1528-32-77      32    77.00       2344.    
  5150 1528-65-350     65    350.0       2242.    
  5151 1528-71-365     71    365.0       2251.    
  5152 1514-42-356     42    356.0       2309.    
  5153 1514-48-350     48    350.0       2287.    
  5154 1514-55-340     55    340.0       2267.    
  5155 1514-61-27      61    27.00       2237.    
  5156 1514-66-54      66    54.00       2245.    
  5157 1514-71-48      71    48.00       2248.    
  5158 1514-71-365     71    365.0       2252.    
  5159 1495-42-356     42    356.0       2327.    
  5160 1495-48-350     48    350.0       2304.    
  5161 1495-55-343     55    343.0       2283.    
  5162 1495-61-41      61    41.00       2259.    
  5163 1495-66-54      66    54.00       2265.    
  5164 1495-71-19      71    19.00       2266.    
  5165 1495-71-365     71    365.0       2269.    
  5166 1484-37-343     37    343.0       2324.    
  5167 1484-42-356     42    356.0       2322.    
  5168 1484-56-11      56    11.00       2270.    
  5169 1484-60-357     60    357.0       2250.    
  5170 1484-66-53      66    53.00       2257.    
  5171 1484-71-19      71    19.00       2258.    
  5172 1484-71-365     71    365.0       2265.    
  5173 1463-56-34      56    34.00       2297.    
  5174 1463-60-357     60    357.0       2276.    
  5175 1463-66-53      66    53.00       2277.    
  5176 1463-71-19      71    19.00       2276.    
  5177 1463-71-365     71    365.0       2278.    
  5178 1483-42-355     42    355.0       2409.    
  5179 1483-48-348     48    348.0       2395.    
  5180 1483-56-6       56    6.000       2382.    
  5181 1483-60-357     60    357.0       2365.    
  5182 1483-66-46      66    46.00       2356.    
  5183 1483-71-35      71    35.00       2356.    
  5184 1483-71-365     71    365.0       2356.    
  5185 1437-16-300     16    300.0       2470.    
     MULTIPLE LAYERS AND PROPORTIONS :    1, 0.61       2, 0.39
  5186 1437-22-32      22    32.00       2449.    
     MULTIPLE LAYERS AND PROPORTIONS :    1, 0.61       2, 0.39
  5187 1437-27-12      27    12.00       2454.    
     MULTIPLE LAYERS AND PROPORTIONS :    1, 0.61       2, 0.39
  5188 1438-42-362     42    362.0       2383.    
  5189 1438-56-20      56    20.00       2383.    
  5190 1438-61-53      61    53.00       2377.    
  5191 1438-66-32      66    32.00       2368.    
  5192 1438-71-40      71    40.00       2365.    
  5193 1445-27-76      27    76.00       2457.    
  5194 1445-32-55      32    55.00       2454.    
  5195 1445-42-356     42    356.0       2429.    
  5196 1445-48-348     48    348.0       2419.    
  5197 1445-55-360     55    360.0       2412.    
  5198 1445-60-357     60    357.0       2392.    
  5199 1445-66-1       66   1.0000       2384.    
  5200 1445-71-35      71    35.00       2382.    
  5201 1445-71-365     71    365.0       2381.    
  5202 1489-32-63      32    63.00       2477.    
  5203 1489-42-355     42    355.0       2437.    
  5204 1489-48-348     48    348.0       2415.    
  5205 1489-55-353     55    353.0       2411.    
  5206 1489-61-28      61    28.00       2385.    
  5207 1489-66-39      66    39.00       2384.    
  5208 1489-71-22      71    22.00       2387.    
  5209 1489-71-365     71    365.0       2387.    
  5210 1469-42-355     42    355.0       2488.    
  5211 1469-48-348     48    348.0       2462.    
  5212 1469-55-357     55    357.0       2471.    
  5213 1469-61-54      61    54.00       2436.    
  5214 1494-66-46      66    46.00       2436.    
  5215 1469-71-71      71    71.00       2437.    
  5216 1469-71-365     71    365.0       2438.    
  5217 1464-12-102     12    102.0       2539.    
  5218 1464-32-63      32    63.00       2521.    
  5219 1464-42-354     42    354.0       2480.    
  5220 1439-37-90      37    90.00       2487.    
  5221 1439-42-355     42    355.0       2474.    
  5222 1439-48-348     48    348.0       2451.    
  5223 1439-56-6       56    6.000       2453.    
  5224 1439-61-28      61    28.00       2422.    
  5225 1439-66-46      66    46.00       2429.    
  5226 1439-71-71      71    71.00       2424.    
  5227 1439-71-365     71    365.0       2426.    
  5228 1435-42-355     42    355.0       2478.    
  5229 1435-48-348     48    348.0       2456.    
  5230 1435-55-361     55    361.0       2461.    
  5231 1435-61-11      61    11.00       2440.    
  5232 1435-66-49      66    49.00       2431.    
  5233 1435-71-71      71    71.00       2426.    
  5234 1435-71-365     71    365.0       2429.    
  5235 1449-37-30      37    30.00       2521.    
     MULTIPLE LAYERS AND PROPORTIONS :    2, 0.16       3, 0.84
  5236 1414-7-138       7    138.0       2553.    
  5237 1414-32-64      32    64.00       2546.    
  5238 1414-38-60      38    60.00       2536.    
  5239 1414-42-354     42    354.0       2520.    
  5240 1379-71-356     71    356.0       2481.    
  5241 1425-2-94        2    94.00       2555.    
  5242 1425-16-359     16    359.0       2546.    
  5243 1425-22-32      22    32.00       2543.    
  5244 1425-27-12      27    12.00       2529.    
  5245 1382-42-355     42    355.0       2493.    
  5246 1382-48-348     48    348.0       2482.    
  5247 1382-56-6       56    6.000       2480.    
  5248 1382-61-54      61    54.00       2469.    
  5249 1382-66-46      66    46.00       2455.    
  5250 1382-71-22      71    22.00       2447.    
  5251 1382-71-365     71    365.0       2447.    
  5252 1413-32-64      32    64.00       2464.    
     MULTIPLE LAYERS AND PROPORTIONS :    1, 0.19       2, 0.81
  5253 1413-37-48      37    48.00       2451.    
     MULTIPLE LAYERS AND PROPORTIONS :    1, 0.19       2, 0.81
  5254 1413-56-6       56    6.000       2328.    
  5255 1413-61-26      61    26.00       2424.    
  5256 1413-66-53      66    53.00       2410.    
  5257 1413-71-48      71    48.00       2401.    
  5258 1395-32-64      32    64.00       2455.    
  5259 1395-42-355     42    355.0       2427.    
  5260 1395-48-348     48    348.0       2425.    
  5261 1395-56-6       56    6.000       2418.    
  5262 1395-61-26      61    26.00       2413.    
  5263 1395-66-1       66   1.0000       2404.    
  5264 1395-71-48      71    48.00       2398.    
  5265 1395-71-365     71    365.0       2396.    
  5266 1377-35-16      35    16.00       2432.    
  5267 1377-42-355     42    355.0       2423.    
  5268 1377-48-348     48    348.0       2420.    
  5269 1377-56-6       56    6.000       2414.    
  5270 1377-61-26      61    26.00       2408.    
  5271 1377-66-53      66    53.00       2401.    
  5272 1377-71-365     71    365.0       2394.    
  5273 1394-42-355     42    355.0       2458.    
  5274 1394-48-348     48    348.0       2453.    
  5275 1394-56-6       56    6.000       2446.    
  5276 1394-61-26      61    26.00       2438.    
  5277 1394-66-53      66    53.00       2427.    
  5278 1394-71-365     71    365.0       2418.    
  5279 1375-32-64      32    64.00       2490.    
  5280 1375-42-355     42    355.0       2474.    
  5281 1375-48-348     48    348.0       2471.    
  5282 1375-56-6       56    6.000       2464.    
  5283 1375-61-26      61    26.00       2457.    
  5284 1375-66-53      66    53.00       2446.    
  5285 1375-71-365     71    365.0       2437.    
  5286 1396-17-90      17    90.00       2452.    
  5287 1396-22-81      22    81.00       2425.    
  5288 1396-32-63      32    63.00       2415.    
  5289 1396-42-355     42    355.0       2389.    
  5290 1396-48-350     48    350.0       2386.    
  5291 1396-56-11      56    11.00       2379.    
  5292 1396-61-26      61    26.00       2365.    
  5293 1396-66-53      66    53.00       2360.    
  5294 1396-71-365     71    365.0       2352.    
  5295 1415-22-82      22    82.00       2419.    
  5296 1415-32-63      32    63.00       2387.    
  5297 1415-37-90      37    90.00       2374.    
  5298 1415-42-355     42    355.0       2364.    
  5299 1415-48-350     48    350.0       2358.    
  5300 1415-56-11      56    11.00       2354.    
  5301 1415-61-27      61    27.00       2338.    
  5302 1415-66-49      66    49.00       2329.    
  5303 1415-71-365     71    365.0       2322.    
  5304 1323-2-88        2    88.00       2488.    
  5305 1368-17-85      17    85.00       2462.    
     MULTIPLE LAYERS AND PROPORTIONS :    1, 0.15       2, 0.85
  5306 1368-22-81      22    81.00       2445.    
     MULTIPLE LAYERS AND PROPORTIONS :    1, 0.15       2, 0.85
  5307 1368-27-15      27    15.00       2436.    
  5308 1368-42-355     42    355.0       2399.    
  5309 1368-55-339     55    339.0       2388.    
  5310 1368-66-49      66    49.00       2374.    
     MULTIPLE LAYERS AND PROPORTIONS :    1, 0.15       2, 0.85
  5311 1368-71-365     71    365.0       2362.    
     MULTIPLE LAYERS AND PROPORTIONS :    1, 0.15       2, 0.85
  5312 1327-71-365     71    365.0       2447.    
  5313 1369-71-365     71    365.0       2420.    
  5314 1326-71-365     71    365.0       2429.    
  5315 1302-71-365     71    365.0       2442.    
  5316 1269-37-48      37    48.00       2533.    
  5317 1269-66-1       66   1.0000       2514.    
  5318 1269-71-365     71    365.0       2500.    
  5319 1277-66-59      66    59.00       2516.    
  5320 1330-48-345     48    345.0       2523.    
  5321 1330-56-17      56    17.00       2523.    
  5322 1322-2-94        2    94.00       2574.    
  5323 1331-48-345     48    345.0       2533.    
  5324 1331-56-17      56    17.00       2532.    
  5325 1331-61-54      61    54.00       2528.    
  5326 1331-66-32      66    32.00       2513.    
  5327 1331-71-40      71    40.00       2500.    
  5328 1276-12-99      12    99.00       2565.    
  5329 1276-17-90      17    90.00       2570.    
  5330 1771-33-65      33    65.00       2644.    
  5331 1880-42-356     42    356.0       2637.    
  5332 1880-48-335     48    335.0       2636.    
  5333 1880-61-60      61    60.00       2632.    
  5334 1880-66-25      66    25.00       2633.    
  5335 1735-34-152     34    152.0       2644.    
  5336 1840-16-362     16    362.0       2630.    
  5337 1794-3-36        3    36.00       2640.    
  5338 1794-16-362     16    362.0       2640.    
  5339 1794-27-12      27    12.00       2642.    
  5340 1794-71-39      71    39.00       2640.    
  5341 1794-71-365     71    365.0       2635.    
  5342 1796-16-362     16    362.0       2635.    
  5343 1806-55-348     55    348.0       2639.    
  5344 1806-60-364     60    364.0       2635.    
  5345 1806-66-1       66   1.0000       2629.    
  5346 1806-71-39      71    39.00       2638.    
  5347 1806-71-365     71    365.0       2635.    
  5348 1788-55-348     55    348.0       2637.    
  5349 1788-60-364     60    364.0       2632.    
  5350 1788-66-21      66    21.00       2631.    
  5351 1788-71-39      71    39.00       2631.    
  5352 1788-71-365     71    365.0       2633.    
  5353 1782-42-355     42    355.0       2633.    
  5354 1782-48-348     48    348.0       2631.    
  5355 1782-55-348     55    348.0       2635.    
  5356 1782-60-364     60    364.0       2631.    
  5357 1782-66-28      66    28.00       2628.    
  5358 1782-71-39      71    39.00       2628.    
  5359 1782-71-365     71    365.0       2631.    
  5360 1807-66-28      66    28.00       2633.    
  5361 1807-71-39      71    39.00       2634.    
  5362 1807-71-365     71    365.0       2634.    
  5363 1896-55-348     55    348.0       2594.    
  5364 1881-71-39      71    39.00       2601.    
  5365 1881-71-365     71    365.0       2589.    
  5366 1841-1-357       1    357.0       2580.    
 Observation within a steady-state time step has been moved to the end of the time step.
  5367 1773-34-91      34    91.00       2602.    
  5368 1821-48-302     48    302.0       2600.    
  5369 1798-16-362     16    362.0       2587.    
  5370 1797-48-348     48    348.0       2599.    
  5371 1797-55-348     55    348.0       2605.    
  5372 1797-60-354     60    354.0       2596.    
  5373 1797-66-28      66    28.00       2599.    
  5374 1797-71-39      71    39.00       2603.    
  5375 1797-71-365     71    365.0       2602.    
  5376 1789-42-356     42    356.0       2598.    
  5377 1789-55-348     55    348.0       2598.    
  5378 1789-60-364     60    364.0       2591.    
  5379 1789-66-28      66    28.00       2592.    
  5380 1789-71-39      71    39.00       2594.    
  5381 1789-71-365     71    365.0       2596.    
  5382 1780-66-28      66    28.00       2599.    
  5383 1780-71-39      71    39.00       2602.    
  5384 1780-71-365     71    365.0       2604.    
  5385 1799-42-356     42    356.0       2601.    
  5386 1799-48-335     48    335.0       2589.    
  5387 1736-34-152     34    152.0       2616.    
  5388 1613-42-355     42    355.0       2568.    
  5389 1613-48-348     48    348.0       2573.    
  5390 1613-55-348     55    348.0       2537.    
  5391 1613-61-41      61    41.00       2504.    
  5392 1613-66-12      66    12.00       2480.    
  5393 1613-71-22      71    22.00       2473.    
  5394 1613-71-365     71    365.0       2471.    
  5395 1606-55-348     55    348.0       2541.    
  5396 1606-61-41      61    41.00       2508.    
  5397 1606-66-12      66    12.00       2483.    
  5398 1606-71-22      71    22.00       2477.    
  5399 1606-71-365     71    365.0       2475.    
  5400 1620-2-90        2    90.00       2690.    
  5401 1620-12-324     12    324.0       2672.    
  5402 1620-16-362     16    362.0       2671.    
  5403 1705-48-335     48    335.0       2651.    
  5404 1705-56-16      56    16.00       2668.    
  5405 1705-61-60      61    60.00       2643.    
  5406 1705-66-25      66    25.00       2663.    
  5407 1530-48-335     48    335.0       2610.    
  5408 1530-56-16      56    16.00       2698.    
  5409 1530-61-60      61    60.00       2732.    
  5410 1434-37-27      37    27.00       2699.    
  5411 1434-42-356     42    356.0       2704.    
  5412 1434-56-17      56    17.00       2711.    
  5413 1434-60-321     60    321.0       2712.    
  5414 1434-65-298     65    298.0       2716.    
  5415 1434-71-365     71    365.0       2715.    
  5416 1384-48-335     48    335.0       2782.    
  5417 1344-48-348     48    348.0       2732.    
  5418 1344-55-348     55    348.0       2741.    
  5419 1344-61-41      61    41.00       2745.    
  5420 1344-66-5       66    5.000       2740.    
  5421 1344-71-356     71    356.0       2734.    
  5422 1354-2-93        2    93.00       2721.    
  5423 1354-7-52        7    52.00       2719.    
  5424 1354-12-102     12    102.0       2718.    
  5425 1354-17-71      17    71.00       2715.    
  5426 1354-22-32      22    32.00       2708.    
  5427 1354-32-90      32    90.00       2708.    
  5428 1354-38-60      38    60.00       2700.    
  5429 1358-32-90      32    90.00       2708.    
  5430 1358-48-336     48    336.0       2704.    
  5431 846-17-5        17    5.000       2368.    
  5432 846-22-33       22    33.00       2362.    
  5433 846-48-348      48    348.0       2367.    
  5434 846-61-25       61    25.00       2372.    
  5435 846-65-362      65    362.0       2372.    
  5436 846-71-365      71    365.0       2376.    
  5437 829-48-348      48    348.0       2368.    
  5438 829-55-353      55    353.0       2372.    
  5439 829-61-35       61    35.00       2375.    
  5440 829-65-362      65    362.0       2373.    
  5441 829-71-365      71    365.0       2379.    
  5442 839-12-121      12    121.0       2371.    
     MULTIPLE LAYERS AND PROPORTIONS :    2, 0.10       3, 0.90
  5443 839-71-365      71    365.0       2370.    
     MULTIPLE LAYERS AND PROPORTIONS :    2, 0.10       3, 0.90
  5444 817-1-220        1    220.0       2378.    
 Observation within a steady-state time step has been moved to the end of the time step.
  5445 817-6-331        6    331.0       2379.    
  5446 817-12-8        12    8.000       2379.    
  5447 813-32-87       32    87.00       2359.    
  5448 813-37-33       37    33.00       2360.    
  5449 813-42-350      42    350.0       2369.    
  5450 813-48-348      48    348.0       2377.    
  5451 813-56-17       56    17.00       2381.    
  5452 813-60-323      60    323.0       2381.    
  5453 813-65-301      65    301.0       2379.    
  5454 813-71-365      71    365.0       2386.    
  5455 818-17-5        17    5.000       2377.    
  5456 820-1-108        1    108.0       2362.    
 Observation within a steady-state time step has been moved to the end of the time step.
  5457 812-17-5        17    5.000       2369.    
     MULTIPLE LAYERS AND PROPORTIONS :    2, 0.08       3, 0.92
  5458 812-36-157      36    157.0       2336.    
     MULTIPLE LAYERS AND PROPORTIONS :    2, 0.08       3, 0.92
  5459 812-56-17       56    17.00       2373.    
     MULTIPLE LAYERS AND PROPORTIONS :    2, 0.08       3, 0.92
  5460 812-61-61       61    61.00       2364.    
     MULTIPLE LAYERS AND PROPORTIONS :    2, 0.08       3, 0.92
  5461 812-66-19       66    19.00       2373.    
     MULTIPLE LAYERS AND PROPORTIONS :    2, 0.08       3, 0.92
  5462 811-56-19       56    19.00       2372.    
  5463 811-66-20       66    20.00       2372.    
  5464 796-65-362      65    362.0       2378.    
  5465 796-71-365      71    365.0       2379.    
  5466 833-8-18         8    18.00       2360.    
     MULTIPLE LAYERS AND PROPORTIONS :    2, 0.17       3, 0.83
  5467 822-1-63         1    63.00       2365.    
 Observation within a steady-state time step has been moved to the end of the time step.
  5468 830-1-365        1    365.0       2364.    
 Observation within a steady-state time step has been moved to the end of the time step.
  5469 821-56-17       56    17.00       2359.    
  5470 821-61-61       61    61.00       2360.    
  5471 845-1-73         1    73.00       2315.    
 Observation within a steady-state time step has been moved to the end of the time step.
  5472 845-7-2          7    2.000       2316.    
  5473 845-11-272      11    272.0       2315.    
  5474 845-16-318      16    318.0       2306.    
  5475 845-22-33       22    33.00       2308.    
  5476 845-31-351      31    351.0       2303.    
  5477 845-36-62       36    62.00       2300.    
  5478 845-42-350      42    350.0       2299.    
  5479 845-48-348      48    348.0       2301.    
  5480 845-56-19       56    19.00       2310.    
  5481 845-60-323      60    323.0       2310.    
  5482 845-65-301      65    301.0       2309.    
  5483 845-71-13       71    13.00       2316.    
  5484 1183-16-315     16    315.0       2059.    
     MULTIPLE LAYERS AND PROPORTIONS :    2, 0.37       3, 0.63
  5485 1183-26-354     26    354.0       2042.    
     MULTIPLE LAYERS AND PROPORTIONS :    2, 0.37       3, 0.63
  5486 1183-31-362     31    362.0       2037.    
     MULTIPLE LAYERS AND PROPORTIONS :    2, 0.37       3, 0.63
  5487 1183-36-356     36    356.0       2032.    
     MULTIPLE LAYERS AND PROPORTIONS :    2, 0.37       3, 0.63
  5488 1183-42-350     42    350.0       2023.    
     MULTIPLE LAYERS AND PROPORTIONS :    2, 0.37       3, 0.63
  5489 1183-48-348     48    348.0       2015.    
     MULTIPLE LAYERS AND PROPORTIONS :    2, 0.37       3, 0.63
  5490 1183-66-25      66    25.00       1980.    
     MULTIPLE LAYERS AND PROPORTIONS :    2, 0.37       3, 0.63
  5491 1183-71-365     71    365.0       2002.    
     MULTIPLE LAYERS AND PROPORTIONS :    2, 0.37       3, 0.63
  5492 1190-56-23      56    23.00       2001.    
     MULTIPLE LAYERS AND PROPORTIONS :    2, 0.40       3, 0.60
  5493 1190-61-54      61    54.00       1992.    
     MULTIPLE LAYERS AND PROPORTIONS :    2, 0.40       3, 0.60
  5494 1190-66-25      66    25.00       1979.    
     MULTIPLE LAYERS AND PROPORTIONS :    2, 0.40       3, 0.60
  5495 1186-3-344       1    108.0       2064.    
 Observation within a steady-state time step has been moved to the end of the time step.
  5496 1186-5-69        5    69.00       2064.    
  5497 1186-17-6       17    6.000       2057.    
  5498 1185-10-213     10    213.0       2065.    
  5499 1178-38-335     38    335.0       2020.    
  5500 1178-42-349     42    349.0       2004.    
  5501 1178-48-349     48    349.0       1996.    
  5502 1178-55-353     55    353.0       1980.    
  5503 1178-61-21      61    21.00       1956.    
  5504 1178-66-34      66    34.00       1939.    
  5505 1178-71-365     71    365.0       1990.    
  5506 1182-66-25      66    25.00       1954.    
  5507 1132-12-4       12    4.000       2069.    
  5508 1134-1-73        1    73.00       2069.    
 Observation within a steady-state time step has been moved to the end of the time step.
  5509 1148-17-12      17    12.00       2046.    
     MULTIPLE LAYERS AND PROPORTIONS :    2, 0.28       3, 0.72
  5510 1148-21-356     21    356.0       2038.    
     MULTIPLE LAYERS AND PROPORTIONS :    2, 0.28       3, 0.72
  5511 1148-27-27      27    27.00       2033.    
     MULTIPLE LAYERS AND PROPORTIONS :    2, 0.28       3, 0.72
  5512 1148-31-348     31    348.0       2027.    
     MULTIPLE LAYERS AND PROPORTIONS :    2, 0.28       3, 0.72
  5513 1148-37-23      37    23.00       2022.    
     MULTIPLE LAYERS AND PROPORTIONS :    2, 0.28       3, 0.72
  5514 1148-42-349     42    349.0       2011.    
     MULTIPLE LAYERS AND PROPORTIONS :    2, 0.28       3, 0.72
  5515 1148-48-348     48    348.0       2000.    
     MULTIPLE LAYERS AND PROPORTIONS :    2, 0.28       3, 0.72
  5516 1148-55-353     55    353.0       1979.    
     MULTIPLE LAYERS AND PROPORTIONS :    2, 0.28       3, 0.72
  5517 1148-61-34      61    34.00       1951.    
     MULTIPLE LAYERS AND PROPORTIONS :    2, 0.28       3, 0.72
  5518 1148-66-6       66    6.000       1935.    
     MULTIPLE LAYERS AND PROPORTIONS :    2, 0.28       3, 0.72
  5519 1148-71-365     71    365.0       1952.    
     MULTIPLE LAYERS AND PROPORTIONS :    2, 0.28       3, 0.72
  5520 1177-35-321     35    321.0       2025.    
  5521 1177-42-349     42    349.0       2007.    
  5522 1177-48-348     48    348.0       1997.    
  5523 1177-55-353     55    353.0       1979.    
  5524 1177-61-21      61    21.00       1949.    
  5525 1177-66-34      66    34.00       1937.    
  5526 1177-71-50      71    50.00       1949.    
  5527 1105-12-4       12    4.000       2060.    
  5528 1105-16-333     16    333.0       2053.    
  5529 1105-21-356     21    356.0       2044.    
  5530 1106-42-349     42    349.0       2018.    
  5531 1106-55-353     55    353.0       1984.    
  5532 1106-61-13      61    13.00       1958.    
  5533 1106-66-6       66    6.000       1939.    
  5534 1106-71-365     71    365.0       1953.    
  5535 1102-66-6       66    6.000       1941.    
  5536 1102-71-365     71    365.0       1950.    
  5537 1120-3-152       3    152.0       2054.    
  5538 1089-42-349     42    349.0       2026.    
     MULTIPLE LAYERS AND PROPORTIONS :    2, 0.01       3, 0.99
  5539 1089-48-349     48    349.0       2010.    
     MULTIPLE LAYERS AND PROPORTIONS :    2, 0.01       3, 0.99
  5540 1089-55-353     55    353.0       1994.    
     MULTIPLE LAYERS AND PROPORTIONS :    2, 0.01       3, 0.99
  5541 1089-61-34      61    34.00       1975.    
     MULTIPLE LAYERS AND PROPORTIONS :    2, 0.01       3, 0.99
  5542 1089-66-6       66    6.000       1960.    
     MULTIPLE LAYERS AND PROPORTIONS :    2, 0.01       3, 0.99
  5543 1089-71-365     71    365.0       1971.    
     MULTIPLE LAYERS AND PROPORTIONS :    2, 0.01       3, 0.99
  5544 1093-66-6       66    6.000       1959.    
  5545 1093-71-365     71    365.0       1971.    
  5546 1087-48-349     48    349.0       1998.    
     MULTIPLE LAYERS AND PROPORTIONS :    2, 0.02       3, 0.98
  5547 1087-61-24      61    24.00       1992.    
     MULTIPLE LAYERS AND PROPORTIONS :    2, 0.02       3, 0.98
  5548 1087-71-70      71    70.00       1979.    
     MULTIPLE LAYERS AND PROPORTIONS :    2, 0.02       3, 0.98
  5549 1097-15-1       15   1.0000       2056.    
  5550 996-26-315      26    315.0       2108.    
  5551 996-48-349      48    349.0       2065.    
  5552 996-55-353      55    353.0       2055.    
  5553 996-61-11       61    11.00       2037.    
  5554 996-66-6        66    6.000       2034.    
  5555 996-71-365      71    365.0       2036.    
  5556 995-39-335      39    335.0       2084.    
     MULTIPLE LAYERS AND PROPORTIONS :    2, 0.06       3, 0.94
  5557 995-42-349      42    349.0       2064.    
     MULTIPLE LAYERS AND PROPORTIONS :    2, 0.06       3, 0.94
  5558 995-55-353      55    353.0       2044.    
     MULTIPLE LAYERS AND PROPORTIONS :    2, 0.06       3, 0.94
  5559 995-61-34       61    34.00       2030.    
     MULTIPLE LAYERS AND PROPORTIONS :    2, 0.06       3, 0.94
  5560 995-66-6        66    6.000       2019.    
     MULTIPLE LAYERS AND PROPORTIONS :    2, 0.06       3, 0.94
  5561 995-71-365      71    365.0       2033.    
  5562 1090-12-5       12    5.000       2086.    
  5563 1090-17-5       17    5.000       2083.    
  5564 969-56-19       56    19.00       2115.    
  5565 969-71-365      71    365.0       2107.    
  5566 983-42-349      42    349.0       2090.    
  5567 983-55-353      55    353.0       2067.    
  5568 983-61-34       61    34.00       2057.    
  5569 983-66-6        66    6.000       2052.    
  5570 983-71-365      71    365.0       2058.    
  5571 982-39-238      39    238.0       2104.    
  5572 921-42-305      42    305.0       2120.    
  5573 921-48-349      48    349.0       2116.    
  5574 921-61-34       61    34.00       2099.    
  5575 921-65-356      65    356.0       2092.    
  5576 921-71-365      71    365.0       2090.    
  5577 924-43-60       43    60.00       2107.    
  5578 924-48-348      48    348.0       2109.    
  5579 924-55-353      55    353.0       2097.    
  5580 924-61-34       61    34.00       2089.    
  5581 924-66-6        66    6.000       2081.    
  5582 924-71-365      71    365.0       2078.    
  5583 909-56-16       56    16.00       2118.    
  5584 911-34-337      34    337.0       2159.    
  5585 900-56-19       56    19.00       2180.    
     MULTIPLE LAYERS AND PROPORTIONS :    2, 0.48       3, 0.52
  5586 900-61-61       61    61.00       2192.    
     MULTIPLE LAYERS AND PROPORTIONS :    2, 0.48       3, 0.52
  5587 848-56-18       56    18.00       2195.    
     MULTIPLE LAYERS AND PROPORTIONS :    2, 0.56       3, 0.44
  5588 848-66-28       66    28.00       2195.    
     MULTIPLE LAYERS AND PROPORTIONS :    2, 0.56       3, 0.44
  5589 826-56-19       56    19.00       2208.    
  5590 800-61-61       61    61.00       2207.    
  5591 800-66-28       66    28.00       2194.    
  5592 803-33-59       33    59.00       2215.    
  5593 852-2-305        2    305.0       2140.    
  5594 1249-56-27      56    27.00       2347.    
  5595 1249-66-13      66    13.00       2266.    
  5596 1249-71-365     71    365.0       2273.    
  5597 1235-22-32      22    32.00       2376.    
     MULTIPLE LAYERS AND PROPORTIONS :    2, 0.35       3, 0.65
  5598 1235-42-362     42    362.0       2298.    
     MULTIPLE LAYERS AND PROPORTIONS :    2, 0.35       3, 0.65
  5599 1235-48-357     48    357.0       2338.    
     MULTIPLE LAYERS AND PROPORTIONS :    2, 0.35       3, 0.65
  5600 1235-56-32      56    32.00       2326.    
     MULTIPLE LAYERS AND PROPORTIONS :    2, 0.35       3, 0.65
  5601 1238-48-320     48    320.0       2316.    
  5602 1238-56-10      56   10.000       2288.    
  5603 1238-66-10      66   10.000       2251.    
  5604 1238-71-41      71    41.00       2262.    
  5605 1238-71-365     71    365.0       2267.    
  5606 1225-1-365       1    365.0       2430.    
 Observation within a steady-state time step has been moved to the end of the time step.
  5607 1200-56-30      56    30.00       2268.    
  5608 1200-66-10      66   10.000       2231.    
  5609 1200-71-40      71    40.00       2241.    
  5610 1198-71-48      71    48.00       2398.    
  5611 1262-48-320     48    320.0       2313.    
  5612 1262-56-10      56   10.000       2285.    
  5613 1262-60-362     60    362.0       2250.    
  5614 1262-66-10      66   10.000       2246.    
  5615 1262-71-41      71    41.00       2257.    
  5616 1263-48-320     48    320.0       2313.    
  5617 1263-56-10      56   10.000       2284.    
  5618 1263-60-362     60    362.0       2250.    
  5619 1263-66-10      66   10.000       2246.    
  5620 1263-71-60      71    60.00       2257.    
  5621 1263-71-365     71    365.0       2262.    
  5622 1239-17-44      17    44.00       2388.    
     MULTIPLE LAYERS AND PROPORTIONS :    1, 0.16       2, 0.58       3, 0.26
  5623 1239-22-32      22    32.00       2374.    
     MULTIPLE LAYERS AND PROPORTIONS :    1, 0.16       2, 0.58       3, 0.26
  5624 1239-43-5       43    5.000       2298.    
     MULTIPLE LAYERS AND PROPORTIONS :    2, 0.74       3, 0.26
  5625 1239-48-364     48    364.0       2319.    
     MULTIPLE LAYERS AND PROPORTIONS :    2, 0.74       3, 0.26
  5626 1239-56-41      56    41.00       2290.    
     MULTIPLE LAYERS AND PROPORTIONS :    2, 0.74       3, 0.26
  5627 1239-60-362     60    362.0       2257.    
     MULTIPLE LAYERS AND PROPORTIONS :    2, 0.74       3, 0.26
  5628 1239-66-10      66   10.000       2254.    
     MULTIPLE LAYERS AND PROPORTIONS :    2, 0.74       3, 0.26
  5629 1239-71-365     71    365.0       2270.    
     MULTIPLE LAYERS AND PROPORTIONS :    1, 0.16       2, 0.58       3, 0.26
  5630 1232-48-321     48    321.0       2316.    
  5631 1232-56-27      56    27.00       2288.    
  5632 1232-60-361     60    361.0       2254.    
  5633 1232-66-10      66   10.000       2251.    
  5634 1232-71-41      71    41.00       2262.    
  5635 1241-56-27      56    27.00       2287.    
  5636 1241-66-10      66   10.000       2250.    
  5637 1241-71-40      71    40.00       2260.    
  5638 1270-56-30      56    30.00       2282.    
  5639 1270-71-42      71    42.00       2255.    
  5640 1273-43-1       43   1.0000       2285.    
  5641 1273-48-364     48    364.0       2306.    
  5642 1273-56-32      56    32.00       2276.    
  5643 1273-60-362     60    362.0       2242.    
  5644 1273-65-348     65    348.0       2239.    
  5645 1273-71-365     71    365.0       2255.    
  5646 1256-1-365       1    365.0       2388.    
 Observation within a steady-state time step has been moved to the end of the time step.
  5647 1234-43-5       43    5.000       2295.    
     MULTIPLE LAYERS AND PROPORTIONS :    2, 0.48       3, 0.52
  5648 1234-48-364     48    364.0       2316.    
     MULTIPLE LAYERS AND PROPORTIONS :    2, 0.48       3, 0.52
  5649 1234-56-32      56    32.00       2288.    
     MULTIPLE LAYERS AND PROPORTIONS :    2, 0.48       3, 0.52
  5650 1234-60-362     60    362.0       2254.    
     MULTIPLE LAYERS AND PROPORTIONS :    2, 0.48       3, 0.52
  5651 1233-56-32      56    32.00       2288.    
  5652 1233-65-337     65    337.0       2255.    
  5653 1233-71-365     71    365.0       2272.    
  5654 1227-17-44      17    44.00       2392.    
     MULTIPLE LAYERS AND PROPORTIONS :    2, 0.25       3, 0.75
  5655 1227-22-58      22    58.00       2377.    
     MULTIPLE LAYERS AND PROPORTIONS :    2, 0.25       3, 0.75
  5656 1227-31-335     31    335.0       2354.    
     MULTIPLE LAYERS AND PROPORTIONS :    2, 0.25       3, 0.75
  5657 1227-43-5       43    5.000       2301.    
     MULTIPLE LAYERS AND PROPORTIONS :    2, 0.25       3, 0.75
  5658 1227-48-364     48    364.0       2322.    
     MULTIPLE LAYERS AND PROPORTIONS :    2, 0.25       3, 0.75
  5659 1227-56-32      56    32.00       2295.    
     MULTIPLE LAYERS AND PROPORTIONS :    2, 0.25       3, 0.75
  5660 1227-61-60      61    60.00       2261.    
     MULTIPLE LAYERS AND PROPORTIONS :    2, 0.25       3, 0.75
  5661 1227-71-365     71    365.0       2273.    
     MULTIPLE LAYERS AND PROPORTIONS :    2, 0.25       3, 0.75
  5662 1208-1-364       1    364.0       2408.    
 Observation within a steady-state time step has been moved to the end of the time step.
  5663 1208-6-360       6    360.0       2405.    
  5664 1208-11-360     11    360.0       2387.    
  5665 1208-16-357     16    357.0       2389.    
  5666 1208-21-361     21    361.0       2372.    
  5667 1208-26-354     26    354.0       2402.    
  5668 1208-31-362     31    362.0       2395.    
  5669 1219-22-33      22    33.00       2371.    
     MULTIPLE LAYERS AND PROPORTIONS :    1, 0.28       2, 0.09       3, 0.63
  5670 1219-33-165     33    165.0       2333.    
     MULTIPLE LAYERS AND PROPORTIONS :    2, 0.38       3, 0.62
  5671 1219-42-362     42    362.0       2295.    
     MULTIPLE LAYERS AND PROPORTIONS :    2, 0.38       3, 0.62
  5672 1219-48-357     48    357.0       2316.    
     MULTIPLE LAYERS AND PROPORTIONS :    2, 0.38       3, 0.62
  5673 1219-56-32      56    32.00       2290.    
     MULTIPLE LAYERS AND PROPORTIONS :    2, 0.38       3, 0.62
  5674 1219-60-362     60    362.0       2256.    
     MULTIPLE LAYERS AND PROPORTIONS :    2, 0.38       3, 0.62
  5675 1219-66-10      66   10.000       2253.    
     MULTIPLE LAYERS AND PROPORTIONS :    2, 0.37       3, 0.63
  5676 1219-71-365     71    365.0       2269.    
     MULTIPLE LAYERS AND PROPORTIONS :    1, 0.28       2, 0.10       3, 0.62
  5677 1217-56-27      56    27.00       2292.    
  5678 1217-71-365     71    365.0       2271.    
  5679 1205-33-160     33    160.0       2338.    
     MULTIPLE LAYERS AND PROPORTIONS :    1, 0.34       2, 0.11       3, 0.55
  5680 1205-42-362     42    362.0       2300.    
     MULTIPLE LAYERS AND PROPORTIONS :    2, 0.45       3, 0.55
  5681 1205-48-357     48    357.0       2322.    
     MULTIPLE LAYERS AND PROPORTIONS :    2, 0.45       3, 0.55
  5682 1205-56-34      56    34.00       2298.    
     MULTIPLE LAYERS AND PROPORTIONS :    2, 0.45       3, 0.55
  5683 1205-66-10      66   10.000       2296.    
     MULTIPLE LAYERS AND PROPORTIONS :    2, 0.45       3, 0.55
  5684 1231-7-66        7    66.00       2392.    
     MULTIPLE LAYERS AND PROPORTIONS :    1, 0.33       2, 0.52       3, 0.15
  5685 1231-12-57      12    57.00       2377.    
     MULTIPLE LAYERS AND PROPORTIONS :    1, 0.33       2, 0.52       3, 0.15
  5686 1231-17-4       17    4.000       2375.    
     MULTIPLE LAYERS AND PROPORTIONS :    1, 0.33       2, 0.52       3, 0.15
  5687 1231-22-32      22    32.00       2364.    
     MULTIPLE LAYERS AND PROPORTIONS :    1, 0.33       2, 0.52       3, 0.15
  5688 1231-27-10      27   10.000       2353.    
     MULTIPLE LAYERS AND PROPORTIONS :    1, 0.33       2, 0.52       3, 0.15
  5689 1231-31-335     31    335.0       2341.    
     MULTIPLE LAYERS AND PROPORTIONS :    1, 0.33       2, 0.52       3, 0.15
  5690 1231-37-335     37    335.0       2333.    
     MULTIPLE LAYERS AND PROPORTIONS :    2, 0.85       3, 0.15
  5691 1179-6-115       6    115.0       2415.    
  5692 1168-17-47      17    47.00       2403.    
  5693 1168-22-32      22    32.00       2392.    
  5694 1168-36-335     36    335.0       2315.    
  5695 1114-1-365       1    365.0       2440.    
 Observation within a steady-state time step has been moved to the end of the time step.
  5696 1122-17-47      17    47.00       2418.    
  5697 1122-22-32      22    32.00       2391.    
  5698 1122-42-356     42    356.0       2298.    
  5699 1122-48-335     48    335.0       2336.    
  5700 1140-7-66        7    66.00       2423.    
     MULTIPLE LAYERS AND PROPORTIONS :    1, 0.46       2, 0.52       3, 0.02
  5701 1140-12-57      12    57.00       2419.    
     MULTIPLE LAYERS AND PROPORTIONS :    1, 0.46       2, 0.52       3, 0.02
  5702 1140-17-4       17    4.000       2406.    
     MULTIPLE LAYERS AND PROPORTIONS :    1, 0.46       2, 0.52       3, 0.02
  5703 1140-22-32      22    32.00       2395.    
     MULTIPLE LAYERS AND PROPORTIONS :    1, 0.46       2, 0.52       3, 0.02
  5704 1140-31-335     31    335.0       2361.    
     MULTIPLE LAYERS AND PROPORTIONS :    2, 0.98       3, 0.02
  5705 1140-36-345     36    345.0       2332.    
     MULTIPLE LAYERS AND PROPORTIONS :    2, 0.98       3, 0.02
  5706 1193-48-321     48    321.0       2325.    
     MULTIPLE LAYERS AND PROPORTIONS :    2, 0.62       3, 0.38
  5707 1193-56-30      56    30.00       2300.    
     MULTIPLE LAYERS AND PROPORTIONS :    2, 0.62       3, 0.38
  5708 1176-48-320     48    320.0       2326.    
  5709 1176-56-10      56   10.000       2302.    
  5710 1176-60-361     60    361.0       2271.    
  5711 1176-66-10      66   10.000       2265.    
  5712 1176-71-40      71    40.00       2276.    
  5713 1176-71-365     71    365.0       2282.    
  5714 1159-66-10      66   10.000       2352.    
  5715 1159-71-62      71    62.00       2331.    
  5716 1159-71-365     71    365.0       2326.    
  5717 1160-71-62      71    62.00       2408.    
     MULTIPLE LAYERS AND PROPORTIONS :    1, 0.79       2, 0.21
  5718 1160-71-365     71    365.0       2409.    
     MULTIPLE LAYERS AND PROPORTIONS :    1, 0.79       2, 0.21
  5719 1147-42-356     42    356.0       2384.    
  5720 1147-48-335     48    335.0       2391.    
  5721 1147-56-17      56    17.00       2388.    
  5722 1141-1-274       1    274.0       2417.    
 Observation within a steady-state time step has been moved to the end of the time step.
  5723 1141-7-176       7    176.0       2412.    
  5724 1141-11-311     11    311.0       2405.    
  5725 1141-17-44      17    44.00       2406.    
  5726 1141-22-30      22    30.00       2388.    
  5727 1141-26-349     26    349.0       2370.    
  5728 1141-31-362     31    362.0       2359.    
  5729 1141-36-356     36    356.0       2320.    
  5730 1141-42-362     42    362.0       2302.    
  5731 1141-48-364     48    364.0       2330.    
  5732 1141-56-32      56    32.00       2308.    
  5733 1141-60-362     60    362.0       2280.    
  5734 1141-66-1       66   1.0000       2273.    
  5735 1141-71-365     71    365.0       2289.    
  5736 1121-17-44      17    44.00       2430.    
     MULTIPLE LAYERS AND PROPORTIONS :    1, 0.34       2, 0.21       3, 0.45
  5737 1121-22-33      22    33.00       2397.    
     MULTIPLE LAYERS AND PROPORTIONS :    1, 0.34       2, 0.21       3, 0.45
  5738 1121-31-335     31    335.0       2362.    
     MULTIPLE LAYERS AND PROPORTIONS :    1, 0.34       2, 0.21       3, 0.45
  5739 1121-35-345     35    345.0       2332.    
     MULTIPLE LAYERS AND PROPORTIONS :    2, 0.55       3, 0.45
  5740 1121-42-356     42    356.0       2319.    
     MULTIPLE LAYERS AND PROPORTIONS :    2, 0.55       3, 0.45
  5741 1121-48-355     48    355.0       2339.    
     MULTIPLE LAYERS AND PROPORTIONS :    2, 0.55       3, 0.45
  5742 1121-56-32      56    32.00       2335.    
     MULTIPLE LAYERS AND PROPORTIONS :    2, 0.55       3, 0.45
  5743 1121-60-362     60    362.0       2321.    
     MULTIPLE LAYERS AND PROPORTIONS :    2, 0.55       3, 0.45
  5744 1121-65-348     65    348.0       2330.    
     MULTIPLE LAYERS AND PROPORTIONS :    1, 0.34       2, 0.21       3, 0.45
  5745 1121-71-365     71    365.0       2333.    
     MULTIPLE LAYERS AND PROPORTIONS :    1, 0.34       2, 0.21       3, 0.45
  5746 1192-71-55      71    55.00       2429.    
  5747 1157-48-322     48    322.0       2327.    
  5748 1157-56-10      56   10.000       2305.    
  5749 1157-60-361     60    361.0       2275.    
  5750 1157-66-10      66   10.000       2269.    
  5751 1157-71-40      71    40.00       2280.    
  5752 1180-48-323     48    323.0       2405.    
  5753 1167-71-365     71    365.0       2406.    
     MULTIPLE LAYERS AND PROPORTIONS :    1, 0.91       2, 0.09
  5754 1170-71-365     71    365.0       2406.    
     MULTIPLE LAYERS AND PROPORTIONS :    1, 0.69       2, 0.31
  5755 1172-71-365     71    365.0       2406.    
  5756 1163-71-365     71    365.0       2407.    
     MULTIPLE LAYERS AND PROPORTIONS :    1, 0.88       2, 0.12
  5757 1155-71-365     71    365.0       2404.    
  5758 1144-71-365     71    365.0       2418.    
     MULTIPLE LAYERS AND PROPORTIONS :    2, 0.20       3, 0.80
  5759 1080-22-33      22    33.00       2448.    
  5760 1080-31-335     31    335.0       2422.    
  5761 1080-42-356     42    356.0       2428.    
  5762 1080-48-355     48    355.0       2431.    
  5763 1085-42-356     42    356.0       2323.    
     MULTIPLE LAYERS AND PROPORTIONS :    1, 0.12       2, 0.38       3, 0.50
  5764 1085-48-355     48    355.0       2409.    
     MULTIPLE LAYERS AND PROPORTIONS :    1, 0.12       2, 0.38       3, 0.50
  5765 1091-71-56      71    56.00       2424.    
  5766 1048-71-365     71    365.0       2439.    
     MULTIPLE LAYERS AND PROPORTIONS :    1, 0.20       2, 0.12       3, 0.68
  5767 1012-71-365     71    365.0       2441.    
     MULTIPLE LAYERS AND PROPORTIONS :    1, 0.50       2, 0.31       3, 0.19
  5768 1039-48-322     48    322.0       2338.    
  5769 1039-56-30      56    30.00       2315.    
  5770 1039-60-362     60    362.0       2288.    
  5771 1039-66-13      66    13.00       2281.    
  5772 1039-71-365     71    365.0       2299.    
  5773 1040-71-365     71    365.0       2448.    
  5774 1075-17-44      17    44.00       2442.    
     MULTIPLE LAYERS AND PROPORTIONS :    1, 0.35       2, 0.04       3, 0.61
  5775 1075-22-33      22    33.00       2435.    
     MULTIPLE LAYERS AND PROPORTIONS :    1, 0.35       2, 0.04       3, 0.61
  5776 1075-31-335     31    335.0       2413.    
     MULTIPLE LAYERS AND PROPORTIONS :    1, 0.35       2, 0.04       3, 0.61
  5777 1053-42-357     42    357.0       2358.    
  5778 1056-48-335     48    335.0       2338.    
  5779 1056-56-17      56    17.00       2317.    
  5780 1016-17-32      17    32.00       2422.    
  5781 1016-31-335     31    335.0       2366.    
  5782 1016-37-319     37    319.0       2356.    
  5783 1011-22-33      22    33.00       2391.    
     MULTIPLE LAYERS AND PROPORTIONS :    1, 0.14       2, 0.14       3, 0.72
  5784 1015-42-356     42    356.0       2311.    
  5785 1015-48-337     48    337.0       2332.    
  5786 1015-56-19      56    19.00       2335.    
  5787 1015-61-53      61    53.00       2295.    
  5788 1015-66-32      66    32.00       2286.    
  5789 1094-1-277       1    277.0       2430.    
 Observation within a steady-state time step has been moved to the end of the time step.
  5790 1094-6-340       6    340.0       2427.    
  5791 1094-10-27      10    27.00       2424.    
  5792 1077-7-176       7    176.0       2432.    
     MULTIPLE LAYERS AND PROPORTIONS :    1, 0.24       2, 0.76
  5793 1063-17-46      17    46.00       2415.    
     MULTIPLE LAYERS AND PROPORTIONS :    1, 0.12       2, 0.55       3, 0.33
  5794 1063-22-33      22    33.00       2394.    
     MULTIPLE LAYERS AND PROPORTIONS :    1, 0.12       2, 0.55       3, 0.33
  5795 1034-36-335     36    335.0       2322.    
     MULTIPLE LAYERS AND PROPORTIONS :    2, 0.39       3, 0.61
  5796 1034-42-362     42    362.0       2309.    
     MULTIPLE LAYERS AND PROPORTIONS :    2, 0.39       3, 0.61
  5797 1034-48-357     48    357.0       2346.    
     MULTIPLE LAYERS AND PROPORTIONS :    2, 0.39       3, 0.61
  5798 1034-56-34      56    34.00       2323.    
     MULTIPLE LAYERS AND PROPORTIONS :    2, 0.39       3, 0.61
  5799 1034-66-1       66   1.0000       2293.    
     MULTIPLE LAYERS AND PROPORTIONS :    2, 0.39       3, 0.61
  5800 1034-71-54      71    54.00       2305.    
     MULTIPLE LAYERS AND PROPORTIONS :    2, 0.39       3, 0.61
  5801 1034-71-365     71    365.0       2310.    
     MULTIPLE LAYERS AND PROPORTIONS :    2, 0.39       3, 0.61
  5802 997-17-46       17    46.00       2437.    
  5803 997-22-33       22    33.00       2420.    
  5804 1008-1-121       1    121.0       2454.    
 Observation within a steady-state time step has been moved to the end of the time step.
  5805 1049-17-46      17    46.00       2418.    
     MULTIPLE LAYERS AND PROPORTIONS :    2, 0.38       3, 0.62
  5806 1049-31-335     31    335.0       2358.    
     MULTIPLE LAYERS AND PROPORTIONS :    2, 0.38       3, 0.62
  5807 1049-36-335     36    335.0       2342.    
     MULTIPLE LAYERS AND PROPORTIONS :    2, 0.38       3, 0.62
  5808 1049-42-356     42    356.0       2307.    
     MULTIPLE LAYERS AND PROPORTIONS :    2, 0.38       3, 0.62
  5809 1049-48-334     48    334.0       2341.    
     MULTIPLE LAYERS AND PROPORTIONS :    2, 0.38       3, 0.62
  5810 1049-56-18      56    18.00       2319.    
     MULTIPLE LAYERS AND PROPORTIONS :    2, 0.38       3, 0.62
  5811 1049-61-53      61    53.00       2292.    
     MULTIPLE LAYERS AND PROPORTIONS :    2, 0.38       3, 0.62
  5812 1007-11-194     11    194.0       2432.    
  5813 1007-17-4       17    4.000       2433.    
  5814 1007-22-32      22    32.00       2411.    
  5815 1007-27-10      27   10.000       2401.    
  5816 1007-31-335     31    335.0       2370.    
  5817 1007-37-319     37    319.0       2361.    
  5818 1006-1-364       1    364.0       2442.    
 Observation within a steady-state time step has been moved to the end of the time step.
  5819 1006-7-66        7    66.00       2438.    
  5820 1006-11-258     11    258.0       2368.    
  5821 1006-17-44      17    44.00       2426.    
  5822 1065-42-356     42    356.0       2413.    
  5823 1065-48-334     48    334.0       2415.    
  5824 1065-56-18      56    18.00       2414.    
  5825 1065-66-24      66    24.00       2413.    
  5826 991-22-34       22    34.00       2435.    
  5827 991-26-279      26    279.0       2422.    
  5828 991-31-335      31    335.0       2404.    
  5829 991-37-319      37    319.0       2396.    
  5830 991-42-356      42    356.0       2390.    
  5831 991-48-334      48    334.0       2394.    
  5832 991-66-27       66    27.00       2392.    
  5833 976-1-365        1    365.0       2456.    
 Observation within a steady-state time step has been moved to the end of the time step.
  5834 963-1-365        1    365.0       2458.    
 Observation within a steady-state time step has been moved to the end of the time step.
  5835 964-1-365        1    365.0       2458.    
 Observation within a steady-state time step has been moved to the end of the time step.
  5836 960-1-365        1    365.0       2471.    
 Observation within a steady-state time step has been moved to the end of the time step.
  5837 953-1-364        1    364.0       2473.    
 Observation within a steady-state time step has been moved to the end of the time step.
  5838 950-17-4        17    4.000       2472.    
  5839 936-1-365        1    365.0       2461.    
 Observation within a steady-state time step has been moved to the end of the time step.
  5840 932-1-365        1    365.0       2504.    
 Observation within a steady-state time step has been moved to the end of the time step.
  5841 944-42-356      42    356.0       2356.    
  5842 944-48-341      48    341.0       2376.    
  5843 926-1-365        1    365.0       2487.    
 Observation within a steady-state time step has been moved to the end of the time step.
  5844 929-1-364        1    364.0       2484.    
 Observation within a steady-state time step has been moved to the end of the time step.
  5845 929-6-340        6    340.0       2482.    
  5846 929-11-333      11    333.0       2478.    
  5847 929-16-301      16    301.0       2474.    
  5848 974-42-362      42    362.0       2301.    
  5849 974-48-336      48    336.0       2335.    
  5850 974-56-18       56    18.00       2322.    
  5851 957-1-365        1    365.0       2481.    
 Observation within a steady-state time step has been moved to the end of the time step.
  5852 942-1-365        1    365.0       2544.    
 Observation within a steady-state time step has been moved to the end of the time step.
  5853 937-1-364        1    364.0       2473.    
 Observation within a steady-state time step has been moved to the end of the time step.
  5854 943-22-32       22    32.00       2442.    
  5855 943-26-279      26    279.0       2421.    
  5856 943-31-335      31    335.0       2403.    
  5857 943-36-335      36    335.0       2365.    
  5858 943-42-351      42    351.0       2351.    
  5859 943-48-336      48    336.0       2355.    
  5860 862-22-33       22    33.00       2507.    
     MULTIPLE LAYERS AND PROPORTIONS :    1, 0.34       2, 0.34       3, 0.32
  5861 862-27-59       27    59.00       2490.    
     MULTIPLE LAYERS AND PROPORTIONS :    1, 0.34       2, 0.34       3, 0.32
  5862 862-31-335      31    335.0       2453.    
     MULTIPLE LAYERS AND PROPORTIONS :    1, 0.34       2, 0.34       3, 0.32
  5863 862-36-336      36    336.0       2434.    
     MULTIPLE LAYERS AND PROPORTIONS :    1, 0.34       2, 0.34       3, 0.32
  5864 862-42-351      42    351.0       2426.    
     MULTIPLE LAYERS AND PROPORTIONS :    1, 0.34       2, 0.34       3, 0.32
  5865 862-48-337      48    337.0       2442.    
     MULTIPLE LAYERS AND PROPORTIONS :    1, 0.34       2, 0.34       3, 0.32
  5866 901-1-364        1    364.0       2513.    
 Observation within a steady-state time step has been moved to the end of the time step.
  5867 907-37-342      37    342.0       2408.    
     MULTIPLE LAYERS AND PROPORTIONS :    2, 0.59       3, 0.41
  5868 903-1-365        1    365.0       2503.    
 Observation within a steady-state time step has been moved to the end of the time step.
  5869 895-42-356      42    356.0       2392.    
  5870 895-48-337      48    337.0       2386.    
  5871 898-1-32         1    32.00       2492.    
 Observation within a steady-state time step has been moved to the end of the time step.
  5872 898-17-4        17    4.000       2491.    
  5873 889-22-32       22    32.00       2489.    
     MULTIPLE LAYERS AND PROPORTIONS :    1, 0.20       2, 0.22       3, 0.58
  5874 889-26-279      26    279.0       2467.    
     MULTIPLE LAYERS AND PROPORTIONS :    1, 0.20       2, 0.22       3, 0.58
  5875 889-31-335      31    335.0       2455.    
     MULTIPLE LAYERS AND PROPORTIONS :    1, 0.20       2, 0.22       3, 0.58
  5876 889-36-336      36    336.0       2425.    
     MULTIPLE LAYERS AND PROPORTIONS :    1, 0.20       2, 0.22       3, 0.58
  5877 889-42-356      42    356.0       2380.    
     MULTIPLE LAYERS AND PROPORTIONS :    1, 0.20       2, 0.22       3, 0.58
  5878 889-48-337      48    337.0       2404.    
     MULTIPLE LAYERS AND PROPORTIONS :    1, 0.20       2, 0.22       3, 0.58
  5879 889-61-54       61    54.00       2384.    
     MULTIPLE LAYERS AND PROPORTIONS :    1, 0.20       2, 0.22       3, 0.58
  5880 883-42-356      42    356.0       2375.    
  5881 621-37-343      37    343.0       2434.    
     MULTIPLE LAYERS AND PROPORTIONS :    2, 0.16       3, 0.84
  5882 934-33-21       33    21.00       2430.    
  5883 863-1-365        1    365.0       2520.    
 Observation within a steady-state time step has been moved to the end of the time step.
  5884 914-48-336      48    336.0       2386.    
  5885 914-61-55       61    55.00       2363.    
  5886 902-17-47       17    47.00       2483.    
     MULTIPLE LAYERS AND PROPORTIONS :    1, 0.16       2, 0.17       3, 0.67
  5887 902-22-32       22    32.00       2476.    
     MULTIPLE LAYERS AND PROPORTIONS :    1, 0.16       2, 0.17       3, 0.67
  5888 902-26-278      26    278.0       2456.    
     MULTIPLE LAYERS AND PROPORTIONS :    1, 0.16       2, 0.17       3, 0.67
  5889 902-36-336      36    336.0       2408.    
     MULTIPLE LAYERS AND PROPORTIONS :    1, 0.17       2, 0.17       3, 0.66
  5890 902-42-356      42    356.0       2375.    
     MULTIPLE LAYERS AND PROPORTIONS :    2, 0.33       3, 0.67
  5891 902-48-337      48    337.0       2392.    
     MULTIPLE LAYERS AND PROPORTIONS :    2, 0.33       3, 0.67
  5892 902-61-54       61    54.00       2366.    
     MULTIPLE LAYERS AND PROPORTIONS :    2, 0.33       3, 0.67
  5893 916-1-365        1    365.0       2494.    
 Observation within a steady-state time step has been moved to the end of the time step.
  5894 916-7-298        7    298.0       2486.    
  5895 916-11-258      11    258.0       2482.    
  5896 916-17-32       17    32.00       2483.    
  5897 916-22-34       22    34.00       2477.    
  5898 916-26-278      26    278.0       2448.    
  5899 916-36-336      36    336.0       2401.    
  5900 916-42-362      42    362.0       2381.    
  5901 916-48-335      48    335.0       2388.    
  5902 916-61-55       61    55.00       2363.    
  5903 917-42-362      42    362.0       2386.    
  5904 917-48-335      48    335.0       2398.    
  5905 905-1-365        1    365.0       2494.    
 Observation within a steady-state time step has been moved to the end of the time step.
  5906 910-42-362      42    362.0       2406.    
     MULTIPLE LAYERS AND PROPORTIONS :    2, 0.05       3, 0.95
  5907 897-1-365        1    365.0       2511.    
 Observation within a steady-state time step has been moved to the end of the time step.
  5908 864-1-364        1    364.0       2511.    
 Observation within a steady-state time step has been moved to the end of the time step.
  5909 865-42-356      42    356.0       2388.    
     MULTIPLE LAYERS AND PROPORTIONS :    2, 0.53       3, 0.47
  5910 865-48-335      48    335.0       2411.    
     MULTIPLE LAYERS AND PROPORTIONS :    2, 0.53       3, 0.47
  5911 854-1-365        1    365.0       2516.    
 Observation within a steady-state time step has been moved to the end of the time step.
  5912 856-1-365        1    365.0       2515.    
 Observation within a steady-state time step has been moved to the end of the time step.
  5913 851-22-34       22    34.00       2501.    
     MULTIPLE LAYERS AND PROPORTIONS :    1, 0.27       2, 0.18       3, 0.55
  5914 851-26-278      26    278.0       2480.    
     MULTIPLE LAYERS AND PROPORTIONS :    1, 0.27       2, 0.18       3, 0.55
  5915 851-37-342      37    342.0       2445.    
     MULTIPLE LAYERS AND PROPORTIONS :    1, 0.27       2, 0.18       3, 0.55
  5916 851-48-337      48    337.0       2426.    
     MULTIPLE LAYERS AND PROPORTIONS :    2, 0.45       3, 0.55
  5917 851-61-54       61    54.00       2417.    
     MULTIPLE LAYERS AND PROPORTIONS :    2, 0.45       3, 0.55
  5918 843-1-365        1    365.0       2514.    
 Observation within a steady-state time step has been moved to the end of the time step.
  5919 841-1-365        1    365.0       2523.    
 Observation within a steady-state time step has been moved to the end of the time step.
  5920 836-17-4        17    4.000       2508.    
  5921 823-1-365        1    365.0       2528.    
 Observation within a steady-state time step has been moved to the end of the time step.
  5922 859-48-337      48    337.0       2415.    
  5923 842-37-342      37    342.0       2445.    
     MULTIPLE LAYERS AND PROPORTIONS :    2, 0.23       3, 0.77
  5924 842-42-356      42    356.0       2428.    
     MULTIPLE LAYERS AND PROPORTIONS :    2, 0.23       3, 0.77
  5925 842-48-337      48    337.0       2429.    
     MULTIPLE LAYERS AND PROPORTIONS :    2, 0.23       3, 0.77
  5926 842-61-54       61    54.00       2421.    
     MULTIPLE LAYERS AND PROPORTIONS :    2, 0.23       3, 0.77
  5927 831-42-351      42    351.0       2438.    
     MULTIPLE LAYERS AND PROPORTIONS :    1, 0.45       2, 0.55
  5928 831-48-337      48    337.0       2434.    
     MULTIPLE LAYERS AND PROPORTIONS :    1, 0.45       2, 0.55
  5929 828-42-351      42    351.0       2440.    
     MULTIPLE LAYERS AND PROPORTIONS :    1, 0.41       2, 0.33       3, 0.26
  5930 828-48-337      48    337.0       2437.    
     MULTIPLE LAYERS AND PROPORTIONS :    1, 0.41       2, 0.33       3, 0.26
  5931 819-1-365        1    365.0       2533.    
 Observation within a steady-state time step has been moved to the end of the time step.
  5932 1254-71-42      71    42.00       2339.    
  5933 1228-37-95      37    95.00       2395.    
  5934 1228-42-356     42    356.0       2381.    
  5935 1228-56-20      56    20.00       2381.    
  5936 1228-66-25      66    25.00       2353.    
  5937 1228-71-40      71    40.00       2348.    
  5938 1199-48-344     48    344.0       2388.    
  5939 1199-56-20      56    20.00       2389.    
  5940 1199-61-60      61    60.00       2375.    
  5941 1199-66-25      66    25.00       2369.    
  5942 1199-71-40      71    40.00       2361.    
  5943 1243-42-362     42    362.0       2314.    
  5944 1243-56-18      56    18.00       2313.    
  5945 1243-61-60      61    60.00       2294.    
  5946 1243-66-27      66    27.00       2283.    
  5947 1243-71-56      71    56.00       2280.    
  5948 1218-71-365     71    365.0       2422.    
     MULTIPLE LAYERS AND PROPORTIONS :    1, 0.32       2, 0.31       3, 0.37
  5949 1204-42-356     42    356.0       2298.    
     MULTIPLE LAYERS AND PROPORTIONS :    1, 0.15       2, 0.14       3, 0.71
  5950 1204-56-17      56    17.00       2295.    
     MULTIPLE LAYERS AND PROPORTIONS :    1, 0.15       2, 0.14       3, 0.71
  5951 1204-66-26      66    26.00       2264.    
     MULTIPLE LAYERS AND PROPORTIONS :    1, 0.15       2, 0.14       3, 0.71
  5952 1204-71-365     71    365.0       2283.    
     MULTIPLE LAYERS AND PROPORTIONS :    1, 0.15       2, 0.14       3, 0.71
  5953 1131-71-365     71    365.0       2433.    
  5954 1112-48-320     48    320.0       2331.    
  5955 1112-56-25      56    25.00       2321.    
  5956 1112-60-362     60    362.0       2302.    
  5957 1112-65-348     65    348.0       2295.    
  5958 1112-71-60      71    60.00       2306.    
  5959 1112-71-365     71    365.0       2310.    
  5960 1118-71-365     71    365.0       2460.    
  5961 1111-71-362     71    362.0       2461.    
     MULTIPLE LAYERS AND PROPORTIONS :    1, 0.54       2, 0.46
  5962 1169-71-362     71    362.0       2447.    
  5963 1100-48-348     48    348.0       2500.    
     MULTIPLE LAYERS AND PROPORTIONS :    1, 0.56       2, 0.44
  5964 1100-56-25      56    25.00       2499.    
     MULTIPLE LAYERS AND PROPORTIONS :    1, 0.56       2, 0.44
  5965 1100-61-56      61    56.00       2487.    
     MULTIPLE LAYERS AND PROPORTIONS :    1, 0.56       2, 0.44
  5966 1100-66-42      66    42.00       2474.    
     MULTIPLE LAYERS AND PROPORTIONS :    1, 0.56       2, 0.44
  5967 1100-71-365     71    365.0       2471.    
     MULTIPLE LAYERS AND PROPORTIONS :    1, 0.56       2, 0.44
  5968 1051-42-355     42    355.0       2511.    
     MULTIPLE LAYERS AND PROPORTIONS :    2, 0.84       3, 0.16
  5969 1051-48-365     48    365.0       2505.    
     MULTIPLE LAYERS AND PROPORTIONS :    2, 0.84       3, 0.16
  5970 1051-56-25      56    25.00       2501.    
     MULTIPLE LAYERS AND PROPORTIONS :    2, 0.84       3, 0.16
  5971 1051-61-42      61    42.00       2495.    
     MULTIPLE LAYERS AND PROPORTIONS :    2, 0.84       3, 0.16
  5972 1051-66-53      66    53.00       2487.    
     MULTIPLE LAYERS AND PROPORTIONS :    2, 0.84       3, 0.16
  5973 1051-71-365     71    365.0       2480.    
     MULTIPLE LAYERS AND PROPORTIONS :    2, 0.84       3, 0.16
  5974 1036-12-95      12    95.00       2539.    
  5975 1036-26-349     26    349.0       2538.    
  5976 1036-48-348     48    348.0       2513.    
  5977 1036-56-25      56    25.00       2511.    
  5978 1036-61-42      61    42.00       2505.    
  5979 1036-66-53      66    53.00       2496.    
  5980 1036-71-365     71    365.0       2487.    
  5981 1025-56-27      56    27.00       2508.    
  5982 1025-66-59      66    59.00       2497.    
  5983 1054-66-59      66    59.00       2488.    
  5984 1055-65-348     65    348.0       2483.    
  5985 1001-56-18      56    18.00       2499.    
  5986 1001-65-348     65    348.0       2495.    
  5987 1027-56-18      56    18.00       2499.    
  5988 1086-71-55      71    55.00       2451.    
  5989 1099-26-349     26    349.0       2377.    
     MULTIPLE LAYERS AND PROPORTIONS :    1, 0.26       2, 0.24       3, 0.50
  5990 1099-43-4       43    4.000       2312.    
     MULTIPLE LAYERS AND PROPORTIONS :    1, 0.26       2, 0.24       3, 0.50
  5991 1099-48-362     48    362.0       2335.    
     MULTIPLE LAYERS AND PROPORTIONS :    1, 0.26       2, 0.24       3, 0.50
  5992 1099-56-9       56    9.000       2312.    
     MULTIPLE LAYERS AND PROPORTIONS :    1, 0.26       2, 0.24       3, 0.50
  5993 1042-48-355     48    355.0       2340.    
  5994 1042-56-25      56    25.00       2320.    
  5995 1042-60-362     60    362.0       2294.    
  5996 1042-65-348     65    348.0       2287.    
  5997 1042-71-365     71    365.0       2304.    
  5998 952-56-33       56    33.00       2509.    
  5999 952-65-348      65    348.0       2501.    
  6000 949-56-27       56    27.00       2530.    
  6001 993-56-27       56    27.00       2504.    
  6002 956-56-29       56    29.00       2515.    
  6003 886-71-355      71    355.0       2505.    
     MULTIPLE LAYERS AND PROPORTIONS :    2, 0.15       3, 0.85
  6004 886-71-362      71    362.0       2497.    
     MULTIPLE LAYERS AND PROPORTIONS :    2, 0.15       3, 0.85
  6005 913-42-355      42    355.0       2532.    
  6006 913-48-334      48    334.0       2529.    
  6007 913-56-18       56    18.00       2525.    
  6008 913-61-53       61    53.00       2521.    
  6009 913-66-32       66    32.00       2513.    
  6010 874-71-61       71    61.00       2503.    
  6011 933-48-338      48    338.0       2507.    
  6012 933-56-18       56    18.00       2504.    
  6013 933-61-53       61    53.00       2501.    
  6014 933-66-32       66    32.00       2498.    
  6015 887-26-285      26    285.0       2524.    
     MULTIPLE LAYERS AND PROPORTIONS :    1, 0.61       2, 0.39
  6016 887-31-335      31    335.0       2519.    
     MULTIPLE LAYERS AND PROPORTIONS :    1, 0.61       2, 0.39
  6017 887-37-1        37   1.0000       2505.    
     MULTIPLE LAYERS AND PROPORTIONS :    1, 0.61       2, 0.39
  6018 887-42-357      42    357.0       2478.    
     MULTIPLE LAYERS AND PROPORTIONS :    1, 0.61       2, 0.39
  6019 877-42-352      42    352.0       2515.    
  6020 877-48-338      48    338.0       2518.    
  6021 877-61-53       61    53.00       2510.    
  6022 877-66-32       66    32.00       2509.    
  6023 919-42-357      42    357.0       2478.    
     MULTIPLE LAYERS AND PROPORTIONS :    1, 0.81       2, 0.19
  6024 920-42-357      42    357.0       2473.    
     MULTIPLE LAYERS AND PROPORTIONS :    1, 0.88       2, 0.12
  6025 888-42-357      42    357.0       2467.    
  6026 892-17-48       17    48.00       2512.    
     MULTIPLE LAYERS AND PROPORTIONS :    1, 0.61       2, 0.39
  6027 892-22-37       22    37.00       2508.    
     MULTIPLE LAYERS AND PROPORTIONS :    1, 0.61       2, 0.39
  6028 892-26-285      26    285.0       2497.    
     MULTIPLE LAYERS AND PROPORTIONS :    1, 0.61       2, 0.39
  6029 892-31-335      31    335.0       2484.    
     MULTIPLE LAYERS AND PROPORTIONS :    1, 0.61       2, 0.39
  6030 892-36-337      36    337.0       2472.    
     MULTIPLE LAYERS AND PROPORTIONS :    1, 0.61       2, 0.39
  6031 878-36-335      36    335.0       2464.    
     MULTIPLE LAYERS AND PROPORTIONS :    1, 0.34       2, 0.66
  6032 878-42-359      42    359.0       2467.    
     MULTIPLE LAYERS AND PROPORTIONS :    1, 0.34       2, 0.66
  6033 878-71-365      71    365.0       2502.    
     MULTIPLE LAYERS AND PROPORTIONS :    1, 0.34       2, 0.66
  6034 853-22-37       22    37.00       2515.    
  6035 853-26-336      26    336.0       2491.    
  6036 853-48-362      48    362.0       2470.    
  6037 853-56-9        56    9.000       2454.    
  6038 853-61-47       61    47.00       2458.    
  6039 853-65-357      65    357.0       2495.    
  6040 853-71-362      71    362.0       2511.    
  6041 844-43-4        43    4.000       2467.    
     MULTIPLE LAYERS AND PROPORTIONS :    1, 0.49       2, 0.51
  6042 844-48-362      48    362.0       2462.    
     MULTIPLE LAYERS AND PROPORTIONS :    1, 0.49       2, 0.51
  6043 844-56-9        56    9.000       2474.    
     MULTIPLE LAYERS AND PROPORTIONS :    1, 0.49       2, 0.51
  6044 844-61-47       61    47.00       2465.    
     MULTIPLE LAYERS AND PROPORTIONS :    1, 0.49       2, 0.51
  6045 844-65-357      65    357.0       2498.    
     MULTIPLE LAYERS AND PROPORTIONS :    1, 0.49       2, 0.51
  6046 844-71-362      71    362.0       2515.    
     MULTIPLE LAYERS AND PROPORTIONS :    1, 0.49       2, 0.51
  6047 834-16-364      16    364.0       2533.    
     MULTIPLE LAYERS AND PROPORTIONS :    1, 0.92       2, 0.08
  6048 834-26-280      26    280.0       2484.    
     MULTIPLE LAYERS AND PROPORTIONS :    1, 0.92       2, 0.08
  6049 834-43-4        43    4.000       2465.    
     MULTIPLE LAYERS AND PROPORTIONS :    1, 0.92       2, 0.08
  6050 834-56-20       56    20.00       2471.    
     MULTIPLE LAYERS AND PROPORTIONS :    1, 0.92       2, 0.08
  6051 834-60-306      60    306.0       2458.    
     MULTIPLE LAYERS AND PROPORTIONS :    1, 0.92       2, 0.08
  6052 834-65-357      65    357.0       2497.    
     MULTIPLE LAYERS AND PROPORTIONS :    1, 0.92       2, 0.08
  6053 834-71-362      71    362.0       2514.    
     MULTIPLE LAYERS AND PROPORTIONS :    1, 0.92       2, 0.08
  6054 835-65-357      65    357.0       2500.    
  6055 835-71-362      71    362.0       2518.    
  6056 815-1-365        1    365.0       2541.    
 Observation within a steady-state time step has been moved to the end of the time step.
  6057 850-17-80       17    80.00       2544.    
  6058 850-22-37       22    37.00       2543.    
  6059 850-26-285      26    285.0       2538.    
  6060 850-31-335      31    335.0       2532.    
  6061 850-38-60       38    60.00       2520.    
  6062 850-42-352      42    352.0       2509.    
  6063 850-48-338      48    338.0       2512.    
  6064 850-60-320      60    320.0       2501.    
  6065 850-65-298      65    298.0       2503.    
  6066 850-71-365      71    365.0       2504.    
  6067 1259-66-59      66    59.00       2533.    
  6068 1236-66-59      66    59.00       2562.    
  6069 1260-66-59      66    59.00       2532.    
  6070 1244-66-59      66    59.00       2536.    
  6071 1252-35-23      35    23.00       2516.    
  6072 1267-71-365     71    365.0       2476.    
  6073 1253-37-90      37    90.00       2465.    
  6074 1253-42-355     42    355.0       2463.    
  6075 1253-48-349     48    349.0       2460.    
  6076 1253-56-11      56    11.00       2455.    
  6077 1253-61-56      61    56.00       2448.    
  6078 1253-66-59      66    59.00       2441.    
  6079 1253-71-365     71    365.0       2429.    
  6080 1245-37-90      37    90.00       2438.    
  6081 1245-42-355     42    355.0       2425.    
  6082 1245-48-349     48    349.0       2420.    
  6083 1245-55-357     55    357.0       2417.    
  6084 1245-61-12      61    12.00       2408.    
  6085 1245-66-49      66    49.00       2401.    
  6086 1245-71-365     71    365.0       2392.    
  6087 1250-17-86      17    86.00       2461.    
     MULTIPLE LAYERS AND PROPORTIONS :    1, 0.42       2, 0.58
  6088 1250-32-69      32    69.00       2422.    
     MULTIPLE LAYERS AND PROPORTIONS :    1, 0.42       2, 0.58
  6089 1250-37-95      37    95.00       2405.    
     MULTIPLE LAYERS AND PROPORTIONS :    1, 0.42       2, 0.58
  6090 1250-56-19      56    19.00       2380.    
  6091 1250-61-60      61    60.00       2364.    
  6092 1251-12-296     12    296.0       2472.    
     MULTIPLE LAYERS AND PROPORTIONS :    1, 0.24       2, 0.76
  6093 1251-17-86      17    86.00       2459.    
     MULTIPLE LAYERS AND PROPORTIONS :    1, 0.24       2, 0.76
  6094 1251-32-69      32    69.00       2418.    
     MULTIPLE LAYERS AND PROPORTIONS :    1, 0.24       2, 0.76
  6095 1251-37-95      37    95.00       2401.    
     MULTIPLE LAYERS AND PROPORTIONS :    1, 0.24       2, 0.76
  6096 1251-42-356     42    356.0       2381.    
     MULTIPLE LAYERS AND PROPORTIONS :    1, 0.24       2, 0.76
  6097 1251-48-334     48    334.0       2380.    
     MULTIPLE LAYERS AND PROPORTIONS :    1, 0.24       2, 0.76
  6098 1251-56-19      56    19.00       2376.    
     MULTIPLE LAYERS AND PROPORTIONS :    1, 0.24       2, 0.76
  6099 1251-60-321     60    321.0       2362.    
     MULTIPLE LAYERS AND PROPORTIONS :    1, 0.24       2, 0.76
  6100 1251-65-298     65    298.0       2356.    
     MULTIPLE LAYERS AND PROPORTIONS :    1, 0.24       2, 0.76
  6101 1251-71-365     71    365.0       2351.    
     MULTIPLE LAYERS AND PROPORTIONS :    1, 0.24       2, 0.76
  6102 1226-48-344     48    344.0       2395.    
  6103 1226-56-19      56    19.00       2392.    
  6104 1226-61-60      61    60.00       2374.    
  6105 1226-66-25      66    25.00       2371.    
  6106 1226-71-42      71    42.00       2363.    
  6107 1195-12-297     12    297.0       2515.    
     MULTIPLE LAYERS AND PROPORTIONS :    1, 0.47       2, 0.53
  6108 1195-17-60      17    60.00       2511.    
     MULTIPLE LAYERS AND PROPORTIONS :    1, 0.47       2, 0.53
  6109 1195-32-69      32    69.00       2493.    
     MULTIPLE LAYERS AND PROPORTIONS :    1, 0.47       2, 0.53
  6110 1195-37-95      37    95.00       2484.    
     MULTIPLE LAYERS AND PROPORTIONS :    1, 0.47       2, 0.53
  6111 1195-48-344     48    344.0       2469.    
  6112 1195-56-19      56    19.00       2423.    
  6113 1195-66-25      66    25.00       2438.    
  6114 1128-70-357     70    357.0       2457.    
  6115 1128-71-365     71    365.0       2458.    
  6116 1110-17-78      17    78.00       2537.    
  6117 1110-32-70      32    70.00       2525.    
  6118 1110-37-1       37   1.0000       2507.    
  6119 1137-16-357     16    357.0       2534.    
  6120 1173-66-5       66    5.000       2554.    
  6121 1173-71-365     71    365.0       2541.    
  6122 1044-16-362     16    362.0       2571.    
  6123 1044-32-69      32    69.00       2561.    
  6124 1044-37-95      37    95.00       2559.    
  6125 1044-42-356     42    356.0       2552.    
  6126 1044-48-344     48    344.0       2546.    
  6127 1044-56-20      56    20.00       2550.    
  6128 1044-61-60      61    60.00       2536.    
  6129 1044-66-25      66    25.00       2521.    
  6130 1050-71-40      71    40.00       2513.    
  6131 1045-31-349     31    349.0       2555.    
  6132 1045-37-26      37    26.00       2550.    
  6133 1045-42-354     42    354.0       2545.    
  6134 1045-48-344     48    344.0       2543.    
  6135 1045-56-17      56    17.00       2550.    
  6136 1045-60-320     60    320.0       2531.    
  6137 1045-65-298     65    298.0       2514.    
  6138 1045-71-365     71    365.0       2501.    
  6139 1046-31-349     31    349.0       2549.    
  6140 1046-42-354     42    354.0       2535.    
  6141 1046-48-344     48    344.0       2536.    
  6142 1046-56-17      56    17.00       2529.    
  6143 1046-60-320     60    320.0       2529.    
  6144 1046-65-298     65    298.0       2512.    
  6145 1046-71-365     71    365.0       2500.    
  6146 1047-31-349     31    349.0       2492.    
  6147 1047-42-354     42    354.0       2469.    
  6148 1047-48-344     48    344.0       2465.    
  6149 1047-56-17      56    17.00       2456.    
  6150 1047-60-320     60    320.0       2443.    
  6151 1047-65-298     65    298.0       2463.    
  6152 1047-71-365     71    365.0       2462.    
  6153 1059-32-70      32    70.00       2541.    
  6154 1059-56-19      56    19.00       2525.    
  6155 1059-61-54      61    54.00       2518.    
  6156 1059-66-32      66    32.00       2504.    
  6157 1070-36-283     36    283.0       2528.    
     MULTIPLE LAYERS AND PROPORTIONS :    1, 0.42       2, 0.58
  6158 1017-17-78      17    78.00       2551.    
  6159 1017-31-349     31    349.0       2541.    
  6160 1017-37-26      37    26.00       2537.    
  6161 1017-42-355     42    355.0       2531.    
  6162 1004-71-365     71    365.0       2502.    
  6163 988-2-60         2    60.00       2547.    
  6164 979-42-355      42    355.0       2538.    
     MULTIPLE LAYERS AND PROPORTIONS :    1, 0.98       2, 0.02
  6165 979-48-334      48    334.0       2535.    
     MULTIPLE LAYERS AND PROPORTIONS :    1, 0.98       2, 0.02
  6166 979-56-18       56    18.00       2530.    
     MULTIPLE LAYERS AND PROPORTIONS :    1, 0.98       2, 0.02
  6167 979-61-53       61    53.00       2526.    
     MULTIPLE LAYERS AND PROPORTIONS :    1, 0.98       2, 0.02
  6168 961-7-85         7    85.00       2553.    
  6169 961-12-60       12    60.00       2552.    
  6170 961-16-362      16    362.0       2552.    
  6171 955-61-53       61    53.00       2538.    
  6172 955-66-31       66    31.00       2528.    
  6173 925-71-365      71    365.0       2505.    
  6174 940-71-365      71    365.0       2503.    
     MULTIPLE LAYERS AND PROPORTIONS :    1, 0.18       2, 0.82
  6175 945-71-365      71    365.0       2504.    
  6176 959-66-49       66    49.00       2516.    
  6177 959-71-365      71    365.0       2504.    
  6178 922-61-42       61    42.00       2543.    
  6179 922-66-54       66    54.00       2523.    
  6180 922-71-365      71    365.0       2511.    
  6181 978-66-59       66    59.00       2532.    
  6182 978-71-365      71    365.0       2523.    
  6183 977-56-17       56    17.00       2602.    
  6184 977-61-53       61    53.00       2594.    
  6185 977-66-32       66    32.00       2580.    
  6186 973-32-70       32    70.00       2598.    
  6187 973-38-60       38    60.00       2590.    
  6188 973-56-17       56    17.00       2607.    
  6189 973-61-53       61    53.00       2599.    
  6190 954-42-354      42    354.0       2599.    
  6191 954-48-335      48    335.0       2608.    
  6192 870-12-60       12    60.00       2625.    
  6193 870-17-78       17    78.00       2621.    
  6194 870-22-89       22    89.00       2618.    
  6195 870-32-70       32    70.00       2613.    
  6196 870-37-1        37   1.0000       2612.    
  6197 870-42-354      42    354.0       2609.    
  6198 869-7-171        7    171.0       2627.    
  6199 869-42-354      42    354.0       2609.    
  6200 869-56-18       56    18.00       2612.    
  6201 869-60-320      60    320.0       2607.    
  6202 869-65-299      65    299.0       2594.    
  6203 869-71-365      71    365.0       2580.    
  6204 915-66-53       66    53.00       2565.    
  6205 915-71-365      71    365.0       2556.    
  6206 912-66-41       66    41.00       2539.    
  6207 912-71-365      71    365.0       2518.    
  6208 875-2-86         2    86.00       2589.    
  6209 879-61-53       61    53.00       2579.    
  6210 879-66-46       66    46.00       2541.    
  6211 879-71-365      71    365.0       2540.    
  6212 881-2-87         2    87.00       2569.    
  6213 891-48-334      48    334.0       2541.    
  6214 891-56-18       56    18.00       2538.    
  6215 891-61-62       61    62.00       2530.    
  6216 891-66-32       66    32.00       2519.    
  6217 891-71-64       71    64.00       2506.    
  6218 876-42-355      42    355.0       2552.    
     MULTIPLE LAYERS AND PROPORTIONS :    1, 0.35       2, 0.65
  6219 876-48-334      48    334.0       2539.    
     MULTIPLE LAYERS AND PROPORTIONS :    1, 0.35       2, 0.65
  6220 876-56-19       56    19.00       2544.    
     MULTIPLE LAYERS AND PROPORTIONS :    1, 0.35       2, 0.65
  6221 876-61-62       61    62.00       2538.    
     MULTIPLE LAYERS AND PROPORTIONS :    1, 0.35       2, 0.65
  6222 876-66-32       66    32.00       2526.    
     MULTIPLE LAYERS AND PROPORTIONS :    1, 0.35       2, 0.65
  6223 866-66-32       66    32.00       2529.    
  6224 866-71-64       71    64.00       2515.    
  6225 873-33-328      33    328.0       2565.    
  6226 918-42-355      42    355.0       2544.    
     MULTIPLE LAYERS AND PROPORTIONS :    1, 0.72       2, 0.28
  6227 906-37-28       37    28.00       2539.    
     MULTIPLE LAYERS AND PROPORTIONS :    1, 0.33       2, 0.42       3, 0.25
  6228 923-42-355      42    355.0       2541.    
  6229 923-48-334      48    334.0       2538.    
  6230 923-56-18       56    18.00       2533.    
  6231 849-42-356      42    356.0       2552.    
  6232 849-56-18       56    18.00       2543.    
  6233 3417-32-69      32    69.00       2618.    
     MULTIPLE LAYERS AND PROPORTIONS :    2, 0.14       3, 0.86
  6234 3417-35-23      35    23.00       2607.    
     MULTIPLE LAYERS AND PROPORTIONS :    2, 0.14       3, 0.86
  6235 3417-42-354     42    354.0       2615.    
     MULTIPLE LAYERS AND PROPORTIONS :    2, 0.14       3, 0.86
  6236 3417-48-335     48    335.0       2618.    
     MULTIPLE LAYERS AND PROPORTIONS :    2, 0.14       3, 0.86
  6237 3417-56-17      56    17.00       2606.    
     MULTIPLE LAYERS AND PROPORTIONS :    2, 0.14       3, 0.86
  6238 3417-61-53      61    53.00       2601.    
     MULTIPLE LAYERS AND PROPORTIONS :    2, 0.14       3, 0.86
  6239 1921-16-362     16    362.0       2735.    
  6240 1229-36-319     36    319.0       2700.    
  6241 1202-42-362     42    362.0       2739.    
  6242 1202-48-336     48    336.0       2748.    
  6243 1164-2-93        2    93.00       2771.    
  6244 1164-16-300     16    300.0       2748.    
  6245 1164-27-12      27    12.00       2758.    
  6246 1164-48-336     48    336.0       2788.    
  6247 1164-56-17      56    17.00       2792.    
  6248 1164-61-60      61    60.00       2780.    
  6249 1125-71-356     71    356.0       2768.    
  6250 1123-71-53      71    53.00       2768.    
  6251 1543-2-90        2    90.00       2922.    
  6252 1543-56-19      56    19.00       2860.    
  6253 1543-66-26      66    26.00       2873.    
  6254 1084-48-338     48    338.0       2852.    
  6255 1067-71-63      71    63.00       2781.    
  6256 1066-71-63      71    63.00       2777.    
  6257 1544-2-88        2    88.00       2878.    
  6258 1544-12-324     12    324.0       2840.    
  6259 1593-61-60      61    60.00       2797.    
  6260 1593-66-26      66    26.00       2774.    
  6261 1069-71-365     71    365.0       2691.    
  6262 1052-56-17      56    17.00       2728.    
  6263 1052-66-26      66    26.00       2705.    
  6264 989-66-20       66    20.00       2704.    
  6265 966-22-60       22    60.00       2729.    
  6266 987-12-324      12    324.0       2803.    
  6267 987-22-33       22    33.00       2814.    
  6268 987-27-12       27    12.00       2810.    
  6269 987-66-20       66    20.00       2825.    
  6270 858-71-63       71    63.00       2702.    
  6271 890-42-362      42    362.0       2717.    
     MULTIPLE LAYERS AND PROPORTIONS :    2, 0.81       3, 0.19
  6272 890-48-338      48    338.0       2730.    
     MULTIPLE LAYERS AND PROPORTIONS :    2, 0.81       3, 0.19
  6273 890-56-19       56    19.00       2730.    
     MULTIPLE LAYERS AND PROPORTIONS :    2, 0.81       3, 0.19
  6274 890-61-60       61    60.00       2726.    
     MULTIPLE LAYERS AND PROPORTIONS :    2, 0.81       3, 0.19
  6275 890-66-20       66    20.00       2715.    
     MULTIPLE LAYERS AND PROPORTIONS :    2, 0.81       3, 0.19
  6276 908-71-365      71    365.0       2689.    
  6277 667-17-5        17    5.000       2504.    
  6278 667-22-1        22   1.0000       2502.    
  6279 667-27-14       27    14.00       2494.    
  6280 667-31-350      31    350.0       2499.    
  6281 667-37-340      37    340.0       2494.    
  6282 667-42-351      42    351.0       2499.    
  6283 667-48-348      48    348.0       2498.    
  6284 652-27-14       27    14.00       2504.    
  6285 652-56-17       56    17.00       2507.    
  6286 652-66-20       66    20.00       2507.    
  6287 614-27-14       27    14.00       2526.    
  6288 613-56-17       56    17.00       2525.    
  6289 641-1-260        1    260.0       2528.    
 Observation within a steady-state time step has been moved to the end of the time step.
  6290 641-26-1        26   1.0000       2539.    
  6291 641-56-18       56    18.00       2538.    
  6292 641-66-31       66    31.00       2538.    
  6293 793-6-289        6    289.0       2382.    
     MULTIPLE LAYERS AND PROPORTIONS :    2, 0.19       3, 0.81
  6294 793-48-348      48    348.0       2377.    
     MULTIPLE LAYERS AND PROPORTIONS :    2, 0.19       3, 0.81
  6295 793-61-25       61    25.00       2381.    
     MULTIPLE LAYERS AND PROPORTIONS :    2, 0.19       3, 0.81
  6296 793-65-357      65    357.0       2380.    
     MULTIPLE LAYERS AND PROPORTIONS :    2, 0.19       3, 0.81
  6297 793-71-365      71    365.0       2382.    
     MULTIPLE LAYERS AND PROPORTIONS :    2, 0.19       3, 0.81
  6298 762-56-18       56    18.00       2383.    
  6299 762-61-61       61    61.00       2384.    
  6300 762-66-34       66    34.00       2383.    
  6301 758-48-348      48    348.0       2397.    
     MULTIPLE LAYERS AND PROPORTIONS :    2, 0.23       3, 0.77
  6302 758-55-353      55    353.0       2400.    
     MULTIPLE LAYERS AND PROPORTIONS :    2, 0.23       3, 0.77
  6303 758-61-25       61    25.00       2401.    
     MULTIPLE LAYERS AND PROPORTIONS :    2, 0.23       3, 0.77
  6304 758-65-362      65    362.0       2400.    
     MULTIPLE LAYERS AND PROPORTIONS :    2, 0.23       3, 0.77
  6305 758-71-365      71    365.0       2401.    
     MULTIPLE LAYERS AND PROPORTIONS :    2, 0.23       3, 0.77
  6306 766-10-104      10    104.0       2408.    
  6307 773-36-156      36    156.0       2387.    
  6308 722-8-276        8    276.0       2447.    
  6309 722-12-360      12    360.0       2448.    
  6310 722-22-3        22    3.000       2447.    
  6311 741-65-362      65    362.0       2421.    
  6312 741-71-365      71    365.0       2422.    
  6313 738-65-362      65    362.0       2422.    
  6314 738-71-365      71    365.0       2422.    
  6315 743-65-362      65    362.0       2421.    
  6316 743-71-365      71    365.0       2421.    
  6317 740-65-362      65    362.0       2421.    
  6318 740-71-365      71    365.0       2421.    
  6319 737-22-3        22    3.000       2416.    
  6320 737-48-348      48    348.0       2416.    
  6321 737-61-25       61    25.00       2418.    
  6322 737-65-362      65    362.0       2418.    
  6323 737-71-365      71    365.0       2418.    
  6324 723-12-180      12    180.0       2416.    
  6325 723-17-9        17    9.000       2414.    
  6326 723-22-1        22   1.0000       2414.    
  6327 723-32-85       32    85.00       2411.    
  6328 748-61-61       61    61.00       2238.    
  6329 748-66-33       66    33.00       2227.    
  6330 714-56-19       56    19.00       2237.    
  6331 714-61-61       61    61.00       2235.    
  6332 715-56-17       56    17.00       2450.    
  6333 715-61-62       61    62.00       2457.    
  6334 715-66-35       66    35.00       2456.    
  6335 713-56-17       56    17.00       2455.    
  6336 713-66-35       66    35.00       2454.    
  6337 702-65-362      65    362.0       2463.    
  6338 702-71-365      71    365.0       2463.    
  6339 700-36-164      36    164.0       2460.    
  6340 700-55-353      55    353.0       2466.    
  6341 700-61-25       61    25.00       2467.    
  6342 700-65-362      65    362.0       2466.    
  6343 700-71-365      71    365.0       2467.    
  6344 671-27-14       27    14.00       2489.    
  6345 671-55-353      55    353.0       2494.    
  6346 671-61-25       61    25.00       2495.    
  6347 656-12-178      12    178.0       2494.    
  6348 656-56-17       56    17.00       2499.    
  6349 656-66-20       66    20.00       2499.    
  6350 656-71-365      71    365.0       2499.    
  6351 655-26-362      26    362.0       2408.    
  6352 655-32-85       32    85.00       2406.    
  6353 655-35-53       35    53.00       2401.    
  6354 655-56-18       56    18.00       2407.    
  6355 689-66-33       66    33.00       2257.    
  6356 688-71-365      71    365.0       2245.    
  6357 682-56-18       56    18.00       2351.    
  6358 636-56-18       56    18.00       2491.    
  6359 636-61-62       61    62.00       2491.    
  6360 636-66-20       66    20.00       2492.    
  6361 648-71-365      71    365.0       2482.    
  6362 601-48-348      48    348.0       2513.    
  6363 601-55-353      55    353.0       2504.    
  6364 601-61-34       61    34.00       2505.    
  6365 601-65-362      65    362.0       2505.    
  6366 601-71-365      71    365.0       2505.    
  6367 632-56-17       56    17.00       2501.    
  6368 632-66-20       66    20.00       2500.    
  6369 602-22-1        22   1.0000       2498.    
  6370 579-56-18       56    18.00       2514.    
  6371 598-42-351      42    351.0       2491.    
  6372 598-48-348      48    348.0       2490.    
  6373 598-56-18       56    18.00       2494.    
  6374 598-60-323      60    323.0       2494.    
  6375 598-65-300      65    300.0       2493.    
  6376 598-71-365      71    365.0       2495.    
  6377 739-37-15       37    15.00       2205.    
  6378 739-48-341      48    341.0       2200.    
  6379 739-55-353      55    353.0       2197.    
  6380 739-61-34       61    34.00       2193.    
  6381 739-65-362      65    362.0       2190.    
  6382 739-71-365      71    365.0       2186.    
  6383 720-12-152      12    152.0       2215.    
  6384 720-17-9        17    9.000       2226.    
  6385 720-21-364      21    364.0       2222.    
  6386 720-66-34       66    34.00       2202.    
  6387 747-48-341      48    341.0       2159.    
  6388 747-55-346      55    346.0       2172.    
  6389 747-61-34       61    34.00       2161.    
  6390 747-65-362      65    362.0       2158.    
  6391 747-71-365      71    365.0       2157.    
  6392 717-27-13       27    13.00       2532.    
  6393 644-42-343      42    343.0       2450.    
  6394 625-42-343      42    343.0       2439.    
     MULTIPLE LAYERS AND PROPORTIONS :    2, 0.23       3, 0.77
  6395 620-42-343      42    343.0       2444.    
  6396 634-35-29       35    29.00       2574.    
  6397 634-42-322      42    322.0       2559.    
  6398 554-42-350      42    350.0       2595.    
  6399 561-42-349      42    349.0       2661.    
  6400 535-42-350      42    350.0       2638.    
  6401 577-22-34       22    34.00       2586.    
  6402 577-27-59       27    59.00       2549.    
  6403 577-31-339      31    339.0       2500.    
  6404 577-37-1        37   1.0000       2481.    
  6405 577-42-343      42    343.0       2452.    
  6406 577-48-343      48    343.0       2460.    
  6407 577-56-16       56    16.00       2425.    
  6408 577-60-322      60    322.0       2411.    
  6409 577-65-302      65    302.0       2452.    
  6410 577-71-365      71    365.0       2473.    
  6411 581-1-365        1    365.0       2613.    
 Observation within a steady-state time step has been moved to the end of the time step.
  6412 582-42-343      42    343.0       2423.    
     MULTIPLE LAYERS AND PROPORTIONS :    2, 0.16       3, 0.84
  6413 582-56-16       56    16.00       2421.    
     MULTIPLE LAYERS AND PROPORTIONS :    2, 0.16       3, 0.84
  6414 586-27-56       27    56.00       2560.    
     MULTIPLE LAYERS AND PROPORTIONS :    2, 0.04       3, 0.96
  6415 586-37-316      37    316.0       2455.    
     MULTIPLE LAYERS AND PROPORTIONS :    2, 0.04       3, 0.96
  6416 586-42-343      42    343.0       2436.    
     MULTIPLE LAYERS AND PROPORTIONS :    2, 0.04       3, 0.96
  6417 586-56-16       56    16.00       2414.    
     MULTIPLE LAYERS AND PROPORTIONS :    2, 0.04       3, 0.96
  6418 586-61-55       61    55.00       2392.    
     MULTIPLE LAYERS AND PROPORTIONS :    2, 0.04       3, 0.96
  6419 586-66-46       66    46.00       2450.    
     MULTIPLE LAYERS AND PROPORTIONS :    2, 0.04       3, 0.96
  6420 553-22-39       22    39.00       2593.    
     MULTIPLE LAYERS AND PROPORTIONS :    2, 0.66       3, 0.34
  6421 553-26-299      26    299.0       2554.    
     MULTIPLE LAYERS AND PROPORTIONS :    2, 0.66       3, 0.34
  6422 553-31-348      31    348.0       2505.    
     MULTIPLE LAYERS AND PROPORTIONS :    2, 0.66       3, 0.34
  6423 553-36-21       36    21.00       2455.    
     MULTIPLE LAYERS AND PROPORTIONS :    2, 0.66       3, 0.34
  6424 584-22-44       22    44.00       2584.    
  6425 584-27-56       27    56.00       2547.    
  6426 584-31-339      31    339.0       2495.    
  6427 584-37-1        37   1.0000       2474.    
  6428 584-42-343      42    343.0       2433.    
  6429 584-56-16       56    16.00       2410.    
  6430 584-61-55       61    55.00       2391.    
  6431 584-66-46       66    46.00       2446.    
  6432 585-22-44       22    44.00       2583.    
  6433 585-27-56       27    56.00       2547.    
  6434 585-31-339      31    339.0       2498.    
  6435 585-37-1        37   1.0000       2467.    
  6436 585-42-343      42    343.0       2437.    
  6437 585-56-16       56    16.00       2417.    
  6438 585-61-55       61    55.00       2400.    
  6439 585-66-46       66    46.00       2434.    
  6440 557-38-1        38   1.0000       2450.    
     MULTIPLE LAYERS AND PROPORTIONS :    2, 0.17       3, 0.83
  6441 557-42-343      42    343.0       2435.    
     MULTIPLE LAYERS AND PROPORTIONS :    2, 0.17       3, 0.83
  6442 557-66-46       66    46.00       2446.    
     MULTIPLE LAYERS AND PROPORTIONS :    2, 0.17       3, 0.83
  6443 548-1-365        1    365.0       2625.    
 Observation within a steady-state time step has been moved to the end of the time step.
  6444 575-17-55       17    55.00       2606.    
  6445 575-22-44       22    44.00       2585.    
  6446 575-26-299      26    299.0       2563.    
  6447 563-17-55       17    55.00       2608.    
     MULTIPLE LAYERS AND PROPORTIONS :    2, 0.17       3, 0.83
  6448 563-22-44       22    44.00       2582.    
     MULTIPLE LAYERS AND PROPORTIONS :    2, 0.17       3, 0.83
  6449 563-66-46       66    46.00       2450.    
     MULTIPLE LAYERS AND PROPORTIONS :    2, 0.17       3, 0.83
  6450 556-26-299      26    299.0       2555.    
  6451 556-31-335      31    335.0       2494.    
  6452 556-36-317      36    317.0       2441.    
  6453 556-56-10       56   10.000       2417.    
  6454 556-61-56       61    56.00       2388.    
  6455 556-66-34       66    34.00       2437.    
  6456 558-26-299      26    299.0       2562.    
     MULTIPLE LAYERS AND PROPORTIONS :    2, 0.08       3, 0.92
  6457 558-31-317      31    317.0       2494.    
     MULTIPLE LAYERS AND PROPORTIONS :    2, 0.08       3, 0.92
  6458 558-38-319      38    319.0       2491.    
     MULTIPLE LAYERS AND PROPORTIONS :    2, 0.08       3, 0.92
  6459 572-1-365        1    365.0       2603.    
 Observation within a steady-state time step has been moved to the end of the time step.
  6460 543-1-365        1    365.0       2605.    
 Observation within a steady-state time step has been moved to the end of the time step.
  6461 529-48-336      48    336.0       2480.    
     MULTIPLE LAYERS AND PROPORTIONS :    2, 0.04       3, 0.96
  6462 529-56-10       56   10.000       2437.    
     MULTIPLE LAYERS AND PROPORTIONS :    2, 0.04       3, 0.96
  6463 529-61-56       61    56.00       2410.    
     MULTIPLE LAYERS AND PROPORTIONS :    2, 0.04       3, 0.96
  6464 529-66-34       66    34.00       2445.    
     MULTIPLE LAYERS AND PROPORTIONS :    2, 0.04       3, 0.96
  6465 798-1-365        1    365.0       2539.    
 Observation within a steady-state time step has been moved to the end of the time step.
  6466 794-1-77         1    77.00       2534.    
 Observation within a steady-state time step has been moved to the end of the time step.
  6467 772-3-59         3    59.00       2562.    
  6468 792-1-365        1    365.0       2540.    
 Observation within a steady-state time step has been moved to the end of the time step.
  6469 790-1-274        1    274.0       2535.    
 Observation within a steady-state time step has been moved to the end of the time step.
  6470 790-6-286        6    286.0       2531.    
  6471 790-11-258      11    258.0       2529.    
  6472 790-17-4        17    4.000       2524.    
  6473 790-22-34       22    34.00       2517.    
  6474 790-27-53       27    53.00       2506.    
  6475 790-31-335      31    335.0       2490.    
  6476 790-37-32       37    32.00       2471.    
  6477 790-42-351      42    351.0       2453.    
  6478 790-48-337      48    337.0       2445.    
  6479 790-61-54       61    54.00       2443.    
  6480 783-1-274        1    274.0       2535.    
 Observation within a steady-state time step has been moved to the end of the time step.
  6481 783-6-288        6    288.0       2532.    
  6482 783-11-258      11    258.0       2528.    
  6483 783-17-4        17    4.000       2528.    
  6484 783-17-47       17    47.00       2528.    
  6485 783-22-34       22    34.00       2521.    
  6486 783-26-280      26    280.0       2507.    
  6487 783-31-335      31    335.0       2498.    
  6488 783-42-351      42    351.0       2458.    
  6489 783-61-54       61    54.00       2445.    
  6490 799-1-365        1    365.0       2542.    
 Observation within a steady-state time step has been moved to the end of the time step.
  6491 774-65-357      65    357.0       2494.    
  6492 774-71-362      71    362.0       2519.    
  6493 751-1-365        1    365.0       2570.    
 Observation within a steady-state time step has been moved to the end of the time step.
  6494 746-22-38       22    38.00       2536.    
     MULTIPLE LAYERS AND PROPORTIONS :    1, 0.47       2, 0.53
  6495 746-26-280      26    280.0       2500.    
     MULTIPLE LAYERS AND PROPORTIONS :    1, 0.47       2, 0.53
  6496 746-32-41       32    41.00       2498.    
     MULTIPLE LAYERS AND PROPORTIONS :    1, 0.47       2, 0.53
  6497 746-48-362      48    362.0       2477.    
     MULTIPLE LAYERS AND PROPORTIONS :    1, 0.47       2, 0.53
  6498 746-56-9        56    9.000       2486.    
     MULTIPLE LAYERS AND PROPORTIONS :    1, 0.47       2, 0.53
  6499 746-61-47       61    47.00       2486.    
     MULTIPLE LAYERS AND PROPORTIONS :    1, 0.47       2, 0.53
  6500 746-65-357      65    357.0       2520.    
     MULTIPLE LAYERS AND PROPORTIONS :    1, 0.47       2, 0.53
  6501 746-71-362      71    362.0       2538.    
     MULTIPLE LAYERS AND PROPORTIONS :    1, 0.47       2, 0.53
  6502 745-1-55         1    55.00       2556.    
 Observation within a steady-state time step has been moved to the end of the time step.
  6503 754-48-342      48    342.0       2454.    
  6504 754-56-18       56    18.00       2468.    
  6505 754-61-53       61    53.00       2463.    
  6506 754-66-32       66    32.00       2491.    
  6507 721-12-313      12    313.0       2560.    
  6508 721-17-52       17    52.00       2559.    
  6509 721-22-38       22    38.00       2545.    
  6510 721-26-287      26    287.0       2529.    
  6511 721-31-335      31    335.0       2519.    
  6512 721-36-318      36    318.0       2501.    
  6513 721-42-350      42    350.0       2487.    
  6514 721-48-343      48    343.0       2496.    
  6515 721-56-19       56    19.00       2501.    
  6516 721-61-55       61    55.00       2517.    
  6517 721-66-46       66    46.00       2551.    
  6518 729-43-4        43    4.000       2481.    
     MULTIPLE LAYERS AND PROPORTIONS :    1, 0.47       2, 0.53
  6519 729-48-362      48    362.0       2483.    
     MULTIPLE LAYERS AND PROPORTIONS :    1, 0.47       2, 0.53
  6520 729-56-9        56    9.000       2494.    
     MULTIPLE LAYERS AND PROPORTIONS :    1, 0.47       2, 0.53
  6521 729-66-1        66   1.0000       2530.    
     MULTIPLE LAYERS AND PROPORTIONS :    1, 0.47       2, 0.53
  6522 729-71-362      71    362.0       2550.    
     MULTIPLE LAYERS AND PROPORTIONS :    1, 0.47       2, 0.53
  6523 706-17-52       17    52.00       2567.    
     MULTIPLE LAYERS AND PROPORTIONS :    1, 0.87       2, 0.13
  6524 706-22-37       22    37.00       2551.    
     MULTIPLE LAYERS AND PROPORTIONS :    1, 0.87       2, 0.13
  6525 706-27-62       27    62.00       2534.    
     MULTIPLE LAYERS AND PROPORTIONS :    1, 0.87       2, 0.13
  6526 706-31-335      31    335.0       2512.    
     MULTIPLE LAYERS AND PROPORTIONS :    1, 0.87       2, 0.13
  6527 706-43-4        43    4.000       2494.    
     MULTIPLE LAYERS AND PROPORTIONS :    1, 0.87       2, 0.13
  6528 706-48-362      48    362.0       2496.    
     MULTIPLE LAYERS AND PROPORTIONS :    1, 0.87       2, 0.13
  6529 706-56-9        56    9.000       2500.    
     MULTIPLE LAYERS AND PROPORTIONS :    1, 0.87       2, 0.13
  6530 706-61-47       61    47.00       2502.    
     MULTIPLE LAYERS AND PROPORTIONS :    1, 0.87       2, 0.13
  6531 706-65-357      65    357.0       2537.    
     MULTIPLE LAYERS AND PROPORTIONS :    1, 0.87       2, 0.13
  6532 706-71-362      71    362.0       2557.    
     MULTIPLE LAYERS AND PROPORTIONS :    1, 0.87       2, 0.13
  6533 694-17-52       17    52.00       2576.    
  6534 694-22-38       22    38.00       2562.    
  6535 694-26-285      26    285.0       2534.    
  6536 694-31-344      31    344.0       2513.    
  6537 694-36-354      36    354.0       2476.    
  6538 694-43-4        43    4.000       2493.    
  6539 694-48-362      48    362.0       2498.    
  6540 694-56-9        56    9.000       2505.    
  6541 694-61-47       61    47.00       2504.    
  6542 694-65-357      65    357.0       2533.    
  6543 694-71-362      71    362.0       2554.    
  6544 716-1-365        1    365.0       2575.    
 Observation within a steady-state time step has been moved to the end of the time step.
  6545 719-12-121      12    121.0       2562.    
     MULTIPLE LAYERS AND PROPORTIONS :    1, 0.93       2, 0.07
  6546 708-8-302        8    302.0       2566.    
     MULTIPLE LAYERS AND PROPORTIONS :    1, 0.83       2, 0.17
  6547 708-12-64       12    64.00       2563.    
     MULTIPLE LAYERS AND PROPORTIONS :    1, 0.83       2, 0.17
  6548 708-17-3        17    3.000       2561.    
     MULTIPLE LAYERS AND PROPORTIONS :    1, 0.83       2, 0.17
  6549 708-22-38       22    38.00       2547.    
     MULTIPLE LAYERS AND PROPORTIONS :    1, 0.83       2, 0.17
  6550 708-26-287      26    287.0       2532.    
     MULTIPLE LAYERS AND PROPORTIONS :    1, 0.83       2, 0.17
  6551 708-31-335      31    335.0       2523.    
     MULTIPLE LAYERS AND PROPORTIONS :    1, 0.83       2, 0.17
  6552 708-42-350      42    350.0       2497.    
     MULTIPLE LAYERS AND PROPORTIONS :    1, 0.83       2, 0.17
  6553 708-48-343      48    343.0       2502.    
     MULTIPLE LAYERS AND PROPORTIONS :    1, 0.83       2, 0.17
  6554 685-1-365        1    365.0       2591.    
 Observation within a steady-state time step has been moved to the end of the time step.
  6555 674-22-38       22    38.00       2556.    
     MULTIPLE LAYERS AND PROPORTIONS :    1, 0.84       2, 0.16
  6556 674-31-344      31    344.0       2533.    
     MULTIPLE LAYERS AND PROPORTIONS :    1, 0.84       2, 0.16
  6557 674-42-350      42    350.0       2506.    
     MULTIPLE LAYERS AND PROPORTIONS :    1, 0.84       2, 0.16
  6558 674-48-343      48    343.0       2513.    
     MULTIPLE LAYERS AND PROPORTIONS :    1, 0.84       2, 0.16
  6559 674-56-19       56    19.00       2518.    
     MULTIPLE LAYERS AND PROPORTIONS :    1, 0.84       2, 0.16
  6560 674-61-60       61    60.00       2556.    
     MULTIPLE LAYERS AND PROPORTIONS :    1, 0.84       2, 0.16
  6561 674-66-48       66    48.00       2580.    
     MULTIPLE LAYERS AND PROPORTIONS :    1, 0.84       2, 0.16
  6562 676-27-10       27   10.000       2543.    
     MULTIPLE LAYERS AND PROPORTIONS :    1, 0.54       2, 0.46
  6563 687-17-3        17    3.000       2567.    
     MULTIPLE LAYERS AND PROPORTIONS :    1, 0.69       2, 0.31
  6564 687-22-38       22    38.00       2551.    
     MULTIPLE LAYERS AND PROPORTIONS :    1, 0.69       2, 0.31
  6565 687-27-11       27    11.00       2542.    
     MULTIPLE LAYERS AND PROPORTIONS :    1, 0.69       2, 0.31
  6566 687-42-350      42    350.0       2486.    
     MULTIPLE LAYERS AND PROPORTIONS :    1, 0.69       2, 0.31
  6567 687-48-343      48    343.0       2502.    
     MULTIPLE LAYERS AND PROPORTIONS :    1, 0.69       2, 0.31
  6568 687-56-19       56    19.00       2504.    
     MULTIPLE LAYERS AND PROPORTIONS :    1, 0.69       2, 0.31
  6569 687-61-55       61    55.00       2542.    
     MULTIPLE LAYERS AND PROPORTIONS :    1, 0.69       2, 0.31
  6570 687-66-46       66    46.00       2569.    
     MULTIPLE LAYERS AND PROPORTIONS :    1, 0.69       2, 0.31
  6571 686-56-19       56    19.00       2495.    
     MULTIPLE LAYERS AND PROPORTIONS :    1, 0.21       2, 0.32       3, 0.47
  6572 686-66-46       66    46.00       2558.    
     MULTIPLE LAYERS AND PROPORTIONS :    1, 0.21       2, 0.32       3, 0.47
  6573 677-17-53       17    53.00       2576.    
  6574 677-22-38       22    38.00       2559.    
  6575 677-26-299      26    299.0       2550.    
  6576 677-31-337      31    337.0       2534.    
  6577 677-37-336      37    336.0       2522.    
  6578 677-42-350      42    350.0       2496.    
  6579 677-48-343      48    343.0       2506.    
  6580 677-56-19       56    19.00       2507.    
  6581 677-61-55       61    55.00       2540.    
  6582 677-66-46       66    46.00       2576.    
  6583 675-5-102        5    102.0       2577.    
  6584 675-11-305      11    305.0       2574.    
  6585 675-27-11       27    11.00       2549.    
  6586 665-17-53       17    53.00       2574.    
  6587 665-22-38       22    38.00       2554.    
  6588 665-27-11       27    11.00       2551.    
  6589 665-36-357      36    357.0       2509.    
  6590 665-42-350      42    350.0       2499.    
  6591 665-56-19       56    19.00       2510.    
  6592 665-61-55       61    55.00       2552.    
  6593 665-66-46       66    46.00       2586.    
  6594 657-48-343      48    343.0       2507.    
  6595 649-3-294        3    294.0       2582.    
  6596 649-6-290        6    290.0       2584.    
  6597 649-11-307      11    307.0       2579.    
  6598 649-17-3        17    3.000       2574.    
  6599 649-22-38       22    38.00       2549.    
  6600 649-26-287      26    287.0       2552.    
  6601 649-31-335      31    335.0       2532.    
  6602 649-38-60       38    60.00       2521.    
  6603 649-42-350      42    350.0       2502.    
  6604 649-48-343      48    343.0       2512.    
  6605 649-56-19       56    19.00       2516.    
  6606 649-61-55       61    55.00       2570.    
  6607 651-3-294        3    294.0       2582.    
  6608 651-6-290        6    290.0       2584.    
  6609 651-11-307      11    307.0       2579.    
  6610 651-17-52       17    52.00       2575.    
  6611 651-27-11       27    11.00       2555.    
  6612 651-42-350      42    350.0       2502.    
  6613 651-48-343      48    343.0       2513.    
  6614 651-56-19       56    19.00       2517.    
  6615 651-61-60       61    60.00       2571.    
  6616 651-66-46       66    46.00       2592.    
  6617 679-17-52       17    52.00       2569.    
     MULTIPLE LAYERS AND PROPORTIONS :    1, 0.95       2, 0.05
  6618 679-22-37       22    37.00       2550.    
     MULTIPLE LAYERS AND PROPORTIONS :    1, 0.95       2, 0.05
  6619 679-26-336      26    336.0       2534.    
     MULTIPLE LAYERS AND PROPORTIONS :    1, 0.95       2, 0.05
  6620 679-48-362      48    362.0       2499.    
     MULTIPLE LAYERS AND PROPORTIONS :    1, 0.95       2, 0.05
  6621 679-56-9        56    9.000       2503.    
     MULTIPLE LAYERS AND PROPORTIONS :    1, 0.95       2, 0.05
  6622 679-61-47       61    47.00       2506.    
     MULTIPLE LAYERS AND PROPORTIONS :    1, 0.95       2, 0.05
  6623 679-65-357      65    357.0       2539.    
     MULTIPLE LAYERS AND PROPORTIONS :    1, 0.95       2, 0.05
  6624 679-71-362      71    362.0       2559.    
     MULTIPLE LAYERS AND PROPORTIONS :    1, 0.95       2, 0.05
  6625 680-17-52       17    52.00       2574.    
     MULTIPLE LAYERS AND PROPORTIONS :    1, 0.52       2, 0.48
  6626 680-22-82       22    82.00       2554.    
     MULTIPLE LAYERS AND PROPORTIONS :    1, 0.52       2, 0.48
  6627 680-27-62       27    62.00       2543.    
     MULTIPLE LAYERS AND PROPORTIONS :    1, 0.52       2, 0.48
  6628 680-31-335      31    335.0       2516.    
     MULTIPLE LAYERS AND PROPORTIONS :    1, 0.52       2, 0.48
  6629 680-39-60       39    60.00       2491.    
     MULTIPLE LAYERS AND PROPORTIONS :    1, 0.52       2, 0.48
  6630 680-43-4        43    4.000       2504.    
     MULTIPLE LAYERS AND PROPORTIONS :    1, 0.52       2, 0.48
  6631 680-48-362      48    362.0       2506.    
     MULTIPLE LAYERS AND PROPORTIONS :    1, 0.52       2, 0.48
  6632 680-56-9        56    9.000       2508.    
     MULTIPLE LAYERS AND PROPORTIONS :    1, 0.52       2, 0.48
  6633 680-61-47       61    47.00       2508.    
     MULTIPLE LAYERS AND PROPORTIONS :    1, 0.52       2, 0.48
  6634 680-65-357      65    357.0       2540.    
     MULTIPLE LAYERS AND PROPORTIONS :    1, 0.52       2, 0.48
  6635 680-71-362      71    362.0       2560.    
     MULTIPLE LAYERS AND PROPORTIONS :    1, 0.52       2, 0.48
  6636 684-17-52       17    52.00       2569.    
     MULTIPLE LAYERS AND PROPORTIONS :    1, 0.73       2, 0.27
  6637 684-22-37       22    37.00       2552.    
     MULTIPLE LAYERS AND PROPORTIONS :    1, 0.73       2, 0.27
  6638 684-26-349      26    349.0       2529.    
     MULTIPLE LAYERS AND PROPORTIONS :    1, 0.73       2, 0.27
  6639 684-31-335      31    335.0       2515.    
     MULTIPLE LAYERS AND PROPORTIONS :    1, 0.73       2, 0.27
  6640 684-48-362      48    362.0       2497.    
     MULTIPLE LAYERS AND PROPORTIONS :    1, 0.73       2, 0.27
  6641 684-56-9        56    9.000       2504.    
     MULTIPLE LAYERS AND PROPORTIONS :    1, 0.73       2, 0.27
  6642 684-66-1        66   1.0000       2542.    
     MULTIPLE LAYERS AND PROPORTIONS :    1, 0.73       2, 0.27
  6643 684-71-362      71    362.0       2561.    
     MULTIPLE LAYERS AND PROPORTIONS :    1, 0.73       2, 0.27
  6644 664-1-365        1    365.0       2593.    
 Observation within a steady-state time step has been moved to the end of the time step.
  6645 654-12-67       12    67.00       2578.    
     MULTIPLE LAYERS AND PROPORTIONS :    1, 0.83       2, 0.17
  6646 654-17-52       17    52.00       2574.    
     MULTIPLE LAYERS AND PROPORTIONS :    1, 0.83       2, 0.17
  6647 654-22-37       22    37.00       2548.    
     MULTIPLE LAYERS AND PROPORTIONS :    1, 0.83       2, 0.17
  6648 654-26-285      26    285.0       2532.    
     MULTIPLE LAYERS AND PROPORTIONS :    1, 0.83       2, 0.17
  6649 654-31-335      31    335.0       2524.    
     MULTIPLE LAYERS AND PROPORTIONS :    1, 0.83       2, 0.17
  6650 654-38-32       38    32.00       2520.    
     MULTIPLE LAYERS AND PROPORTIONS :    1, 0.83       2, 0.17
  6651 654-42-349      42    349.0       2476.    
     MULTIPLE LAYERS AND PROPORTIONS :    1, 0.83       2, 0.17
  6652 654-48-343      48    343.0       2493.    
     MULTIPLE LAYERS AND PROPORTIONS :    1, 0.83       2, 0.17
  6653 654-56-19       56    19.00       2506.    
     MULTIPLE LAYERS AND PROPORTIONS :    1, 0.83       2, 0.17
  6654 654-61-60       61    60.00       2512.    
     MULTIPLE LAYERS AND PROPORTIONS :    1, 0.83       2, 0.17
  6655 654-66-49       66    49.00       2540.    
     MULTIPLE LAYERS AND PROPORTIONS :    1, 0.83       2, 0.17
  6656 658-32-41       32    41.00       2519.    
  6657 658-36-357      36    357.0       2482.    
  6658 658-43-4        43    4.000       2484.    
  6659 658-48-362      48    362.0       2493.    
  6660 658-56-9        56    9.000       2515.    
  6661 658-61-47       61    47.00       2509.    
  6662 658-65-357      65    357.0       2542.    
  6663 658-71-362      71    362.0       2564.    
  6664 673-35-360      35    360.0       2507.    
     MULTIPLE LAYERS AND PROPORTIONS :    1, 0.32       2, 0.68
  6665 673-56-9        56    9.000       2508.    
     MULTIPLE LAYERS AND PROPORTIONS :    1, 0.32       2, 0.68
  6666 673-61-47       61    47.00       2504.    
     MULTIPLE LAYERS AND PROPORTIONS :    1, 0.32       2, 0.68
  6667 673-65-357      65    357.0       2527.    
     MULTIPLE LAYERS AND PROPORTIONS :    1, 0.32       2, 0.68
  6668 673-70-334      70    334.0       2545.    
     MULTIPLE LAYERS AND PROPORTIONS :    1, 0.32       2, 0.68
  6669 673-71-362      71    362.0       2550.    
     MULTIPLE LAYERS AND PROPORTIONS :    1, 0.32       2, 0.68
  6670 653-32-41       32    41.00       2506.    
     MULTIPLE LAYERS AND PROPORTIONS :    1, 0.42       2, 0.58
  6671 653-39-32       39    32.00       2513.    
     MULTIPLE LAYERS AND PROPORTIONS :    1, 0.42       2, 0.58
  6672 653-43-4        43    4.000       2493.    
     MULTIPLE LAYERS AND PROPORTIONS :    1, 0.42       2, 0.58
  6673 653-48-362      48    362.0       2495.    
     MULTIPLE LAYERS AND PROPORTIONS :    1, 0.42       2, 0.58
  6674 653-56-9        56    9.000       2514.    
     MULTIPLE LAYERS AND PROPORTIONS :    1, 0.42       2, 0.58
  6675 653-61-47       61    47.00       2500.    
     MULTIPLE LAYERS AND PROPORTIONS :    1, 0.42       2, 0.58
  6676 653-65-357      65    357.0       2517.    
     MULTIPLE LAYERS AND PROPORTIONS :    1, 0.42       2, 0.58
  6677 653-71-362      71    362.0       2552.    
     MULTIPLE LAYERS AND PROPORTIONS :    1, 0.42       2, 0.58
  6678 642-36-352      36    352.0       2607.    
  6679 642-43-4        43    4.000       2588.    
  6680 642-48-362      48    362.0       2581.    
  6681 642-56-9        56    9.000       2580.    
  6682 642-61-47       61    47.00       2572.    
  6683 642-65-357      65    357.0       2568.    
  6684 642-71-362      71    362.0       2571.    
  6685 637-26-295      26    295.0       2608.    
     MULTIPLE LAYERS AND PROPORTIONS :    2, 0.23       3, 0.77
  6686 637-31-349      31    349.0       2611.    
     MULTIPLE LAYERS AND PROPORTIONS :    2, 0.23       3, 0.77
  6687 637-36-352      36    352.0       2607.    
     MULTIPLE LAYERS AND PROPORTIONS :    2, 0.23       3, 0.77
  6688 637-43-4        43    4.000       2578.    
     MULTIPLE LAYERS AND PROPORTIONS :    2, 0.23       3, 0.77
  6689 637-48-362      48    362.0       2568.    
     MULTIPLE LAYERS AND PROPORTIONS :    2, 0.23       3, 0.77
  6690 637-56-9        56    9.000       2569.    
     MULTIPLE LAYERS AND PROPORTIONS :    2, 0.23       3, 0.77
  6691 637-61-47       61    47.00       2559.    
     MULTIPLE LAYERS AND PROPORTIONS :    2, 0.23       3, 0.77
  6692 637-65-357      65    357.0       2553.    
     MULTIPLE LAYERS AND PROPORTIONS :    2, 0.23       3, 0.77
  6693 637-71-362      71    362.0       2566.    
     MULTIPLE LAYERS AND PROPORTIONS :    2, 0.23       3, 0.77
  6694 624-7-99         7    99.00       2610.    
  6695 624-12-103      12    103.0       2609.    
  6696 624-17-52       17    52.00       2607.    
  6697 624-22-39       22    39.00       2605.    
  6698 624-27-5        27    5.000       2602.    
  6699 624-32-1        32   1.0000       2598.    
  6700 595-37-32       37    32.00       2599.    
     MULTIPLE LAYERS AND PROPORTIONS :    1, 0.25       2, 0.25       3, 0.50
  6701 595-43-4        43    4.000       2582.    
     MULTIPLE LAYERS AND PROPORTIONS :    1, 0.25       2, 0.25       3, 0.50
  6702 595-48-362      48    362.0       2558.    
     MULTIPLE LAYERS AND PROPORTIONS :    1, 0.25       2, 0.25       3, 0.50
  6703 595-56-9        56    9.000       2570.    
     MULTIPLE LAYERS AND PROPORTIONS :    1, 0.25       2, 0.25       3, 0.50
  6704 595-61-47       61    47.00       2560.    
     MULTIPLE LAYERS AND PROPORTIONS :    2, 0.50       3, 0.50
  6705 595-65-357      65    357.0       2558.    
     MULTIPLE LAYERS AND PROPORTIONS :    1, 0.25       2, 0.25       3, 0.50
  6706 595-71-362      71    362.0       2564.    
     MULTIPLE LAYERS AND PROPORTIONS :    1, 0.25       2, 0.25       3, 0.50
  6707 604-31-323      31    323.0       2609.    
     MULTIPLE LAYERS AND PROPORTIONS :    2, 0.71       3, 0.29
  6708 604-37-32       37    32.00       2621.    
     MULTIPLE LAYERS AND PROPORTIONS :    2, 0.71       3, 0.29
  6709 604-43-4        43    4.000       2602.    
     MULTIPLE LAYERS AND PROPORTIONS :    2, 0.71       3, 0.29
  6710 604-48-362      48    362.0       2594.    
     MULTIPLE LAYERS AND PROPORTIONS :    2, 0.71       3, 0.29
  6711 604-56-9        56    9.000       2588.    
     MULTIPLE LAYERS AND PROPORTIONS :    2, 0.71       3, 0.29
  6712 604-61-47       61    47.00       2574.    
     MULTIPLE LAYERS AND PROPORTIONS :    2, 0.71       3, 0.29
  6713 604-65-357      65    357.0       2571.    
     MULTIPLE LAYERS AND PROPORTIONS :    2, 0.71       3, 0.29
  6714 604-71-362      71    362.0       2569.    
     MULTIPLE LAYERS AND PROPORTIONS :    2, 0.71       3, 0.29
  6715 596-36-352      36    352.0       2575.    
     MULTIPLE LAYERS AND PROPORTIONS :    2, 0.35       3, 0.65
  6716 596-43-4        43    4.000       2524.    
     MULTIPLE LAYERS AND PROPORTIONS :    2, 0.35       3, 0.65
  6717 596-48-362      48    362.0       2513.    
     MULTIPLE LAYERS AND PROPORTIONS :    2, 0.35       3, 0.65
  6718 596-56-9        56    9.000       2539.    
     MULTIPLE LAYERS AND PROPORTIONS :    2, 0.35       3, 0.65
  6719 596-61-47       61    47.00       2514.    
     MULTIPLE LAYERS AND PROPORTIONS :    2, 0.35       3, 0.65
  6720 596-65-357      65    357.0       2515.    
     MULTIPLE LAYERS AND PROPORTIONS :    2, 0.35       3, 0.65
  6721 596-71-362      71    362.0       2556.    
     MULTIPLE LAYERS AND PROPORTIONS :    2, 0.35       3, 0.65
  6722 609-43-4        43    4.000       2521.    
     MULTIPLE LAYERS AND PROPORTIONS :    1, 0.39       2, 0.61
  6723 609-56-9        56    9.000       2525.    
     MULTIPLE LAYERS AND PROPORTIONS :    1, 0.39       2, 0.61
  6724 609-61-47       61    47.00       2518.    
     MULTIPLE LAYERS AND PROPORTIONS :    1, 0.39       2, 0.61
  6725 609-65-357      65    357.0       2540.    
     MULTIPLE LAYERS AND PROPORTIONS :    1, 0.39       2, 0.61
  6726 609-71-362      71    362.0       2563.    
     MULTIPLE LAYERS AND PROPORTIONS :    1, 0.39       2, 0.61
  6727 639-27-10       27   10.000       2551.    
  6728 639-66-49       66    49.00       2549.    
  6729 626-27-10       27   10.000       2555.    
  6730 626-42-349      42    349.0       2510.    
  6731 626-48-343      48    343.0       2512.    
  6732 626-56-19       56    19.00       2525.    
  6733 626-61-60       61    60.00       2519.    
  6734 626-66-49       66    49.00       2548.    
  6735 635-17-52       17    52.00       2587.    
  6736 635-22-38       22    38.00       2568.    
  6737 635-26-280      26    280.0       2551.    
  6738 635-42-349      42    349.0       2495.    
  6739 635-48-343      48    343.0       2520.    
  6740 635-56-19       56    19.00       2524.    
  6741 635-61-60       61    60.00       2522.    
  6742 635-66-49       66    49.00       2547.    
  6743 629-11-307      11    307.0       2590.    
  6744 629-16-364      16    364.0       2586.    
  6745 629-21-332      21    332.0       2577.    
  6746 629-26-287      26    287.0       2575.    
  6747 629-31-335      31    335.0       2555.    
  6748 629-37-32       37    32.00       2545.    
  6749 629-48-343      48    343.0       2540.    
  6750 629-56-23       56    23.00       2541.    
  6751 629-61-60       61    60.00       2574.    
  6752 629-66-46       66    46.00       2595.    
  6753 628-11-307      11    307.0       2587.    
  6754 628-17-52       17    52.00       2582.    
  6755 628-36-356      36    356.0       2511.    
  6756 628-42-349      42    349.0       2508.    
  6757 628-48-343      48    343.0       2521.    
  6758 628-56-19       56    19.00       2531.    
  6759 628-61-60       61    60.00       2532.    
  6760 628-66-46       66    46.00       2549.    
  6761 630-12-310      12    310.0       2581.    
     MULTIPLE LAYERS AND PROPORTIONS :    1, 0.66       2, 0.34
  6762 630-17-3        17    3.000       2586.    
     MULTIPLE LAYERS AND PROPORTIONS :    1, 0.66       2, 0.34
  6763 630-22-38       22    38.00       2558.    
     MULTIPLE LAYERS AND PROPORTIONS :    1, 0.66       2, 0.34
  6764 630-27-11       27    11.00       2563.    
     MULTIPLE LAYERS AND PROPORTIONS :    1, 0.66       2, 0.34
  6765 630-36-357      36    357.0       2528.    
     MULTIPLE LAYERS AND PROPORTIONS :    1, 0.66       2, 0.34
  6766 630-42-350      42    350.0       2531.    
     MULTIPLE LAYERS AND PROPORTIONS :    1, 0.66       2, 0.34
  6767 630-48-343      48    343.0       2536.    
     MULTIPLE LAYERS AND PROPORTIONS :    1, 0.66       2, 0.34
  6768 630-56-19       56    19.00       2538.    
     MULTIPLE LAYERS AND PROPORTIONS :    1, 0.66       2, 0.34
  6769 630-61-60       61    60.00       2582.    
     MULTIPLE LAYERS AND PROPORTIONS :    1, 0.66       2, 0.34
  6770 630-66-46       66    46.00       2596.    
     MULTIPLE LAYERS AND PROPORTIONS :    1, 0.66       2, 0.34
  6771 631-17-3        17    3.000       2582.    
     MULTIPLE LAYERS AND PROPORTIONS :    1, 0.42       2, 0.58
  6772 631-22-32       22    32.00       2552.    
     MULTIPLE LAYERS AND PROPORTIONS :    1, 0.42       2, 0.58
  6773 631-26-289      26    289.0       2555.    
     MULTIPLE LAYERS AND PROPORTIONS :    1, 0.42       2, 0.58
  6774 631-31-335      31    335.0       2534.    
     MULTIPLE LAYERS AND PROPORTIONS :    1, 0.42       2, 0.58
  6775 631-33-335      33    335.0       2527.    
     MULTIPLE LAYERS AND PROPORTIONS :    1, 0.42       2, 0.58
  6776 631-42-350      42    350.0       2508.    
  6777 631-48-343      48    343.0       2519.    
  6778 631-56-19       56    19.00       2524.    
  6779 631-61-55       61    55.00       2581.    
  6780 631-66-46       66    46.00       2598.    
  6781 593-27-11       27    11.00       2564.    
  6782 593-61-55       61    55.00       2584.    
  6783 593-66-46       66    46.00       2601.    
  6784 592-1-365        1    365.0       2597.    
 Observation within a steady-state time step has been moved to the end of the time step.
  6785 587-7-101        7    101.0       2597.    
     MULTIPLE LAYERS AND PROPORTIONS :    1, 0.40       2, 0.36       3, 0.24
  6786 587-11-307      11    307.0       2592.    
     MULTIPLE LAYERS AND PROPORTIONS :    1, 0.40       2, 0.36       3, 0.24
  6787 587-17-53       17    53.00       2588.    
     MULTIPLE LAYERS AND PROPORTIONS :    1, 0.40       2, 0.36       3, 0.24
  6788 587-26-287      26    287.0       2560.    
     MULTIPLE LAYERS AND PROPORTIONS :    1, 0.40       2, 0.36       3, 0.24
  6789 587-31-335      31    335.0       2541.    
     MULTIPLE LAYERS AND PROPORTIONS :    1, 0.40       2, 0.36       3, 0.24
  6790 587-38-60       38    60.00       2529.    
     MULTIPLE LAYERS AND PROPORTIONS :    2, 0.76       3, 0.24
  6791 587-42-350      42    350.0       2514.    
     MULTIPLE LAYERS AND PROPORTIONS :    2, 0.76       3, 0.24
  6792 587-48-343      48    343.0       2528.    
     MULTIPLE LAYERS AND PROPORTIONS :    2, 0.76       3, 0.24
  6793 587-56-19       56    19.00       2533.    
     MULTIPLE LAYERS AND PROPORTIONS :    2, 0.76       3, 0.24
  6794 587-61-55       61    55.00       2583.    
  6795 587-66-46       66    46.00       2601.    
  6796 591-11-333      11    333.0       2581.    
  6797 591-17-53       17    53.00       2583.    
  6798 591-42-350      42    350.0       2513.    
  6799 597-6-79         6    79.00       2592.    
  6800 597-11-307      11    307.0       2591.    
  6801 597-17-53       17    53.00       2582.    
  6802 597-26-287      26    287.0       2562.    
  6803 597-42-350      42    350.0       2512.    
  6804 597-48-343      48    343.0       2526.    
  6805 597-56-19       56    19.00       2531.    
  6806 597-61-60       61    60.00       2565.    
  6807 597-66-46       66    46.00       2587.    
  6808 607-42-349      42    349.0       2527.    
  6809 607-48-343      48    343.0       2540.    
  6810 607-56-23       56    23.00       2545.    
  6811 607-61-60       61    60.00       2554.    
  6812 607-66-46       66    46.00       2584.    
  6813 568-48-343      48    343.0       2551.    
     MULTIPLE LAYERS AND PROPORTIONS :    1, 0.68       2, 0.32
  6814 568-56-10       56   10.000       2554.    
     MULTIPLE LAYERS AND PROPORTIONS :    1, 0.68       2, 0.32
  6815 568-61-61       61    61.00       2538.    
     MULTIPLE LAYERS AND PROPORTIONS :    1, 0.68       2, 0.32
  6816 560-1-358        1    358.0       2617.    
 Observation within a steady-state time step has been moved to the end of the time step.
     MULTIPLE LAYERS AND PROPORTIONS :    1, 0.77       2, 0.23
  6817 560-6-340        6    340.0       2617.    
     MULTIPLE LAYERS AND PROPORTIONS :    1, 0.77       2, 0.23
  6818 560-10-349      10    349.0       2599.    
     MULTIPLE LAYERS AND PROPORTIONS :    1, 0.77       2, 0.23
  6819 545-38-6        38    6.000       2479.    
     MULTIPLE LAYERS AND PROPORTIONS :    1, 0.18       2, 0.12       3, 0.70
  6820 545-42-356      42    356.0       2524.    
     MULTIPLE LAYERS AND PROPORTIONS :    1, 0.18       2, 0.12       3, 0.70
  6821 538-1-365        1    365.0       2620.    
 Observation within a steady-state time step has been moved to the end of the time step.
     MULTIPLE LAYERS AND PROPORTIONS :    1, 0.97       2, 0.03
  6822 517-7-49         7    49.00       2615.    
  6823 574-56-24       56    24.00       2534.    
  6824 574-61-61       61    61.00       2529.    
  6825 574-66-33       66    33.00       2544.    
  6826 580-1-365        1    365.0       2614.    
 Observation within a steady-state time step has been moved to the end of the time step.
  6827 555-8-357        8    357.0       2608.    
  6828 555-12-67       12    67.00       2604.    
  6829 555-27-10       27   10.000       2570.    
  6830 555-31-335      31    335.0       2561.    
  6831 555-38-60       38    60.00       2550.    
  6832 555-56-24       56    24.00       2557.    
  6833 555-61-60       61    60.00       2550.    
  6834 555-66-33       66    33.00       2562.    
  6835 547-1-365        1    365.0       2616.    
 Observation within a steady-state time step has been moved to the end of the time step.
  6836 546-27-10       27   10.000       2574.    
  6837 539-56-10       56   10.000       2551.    
  6838 539-61-60       61    60.00       2539.    
  6839 539-66-33       66    33.00       2553.    
  6840 573-48-362      48    362.0       2549.    
  6841 573-56-9        56    9.000       2550.    
  6842 573-71-362      71    362.0       2581.    
  6843 808-48-335      48    335.0       2558.    
  6844 808-66-33       66    33.00       2546.    
  6845 808-71-61       71    61.00       2531.    
  6846 807-26-349      26    349.0       2539.    
  6847 807-43-4        43    4.000       2524.    
  6848 807-48-341      48    341.0       2491.    
  6849 805-56-9        56    9.000       2512.    
  6850 807-56-9        56    9.000       2486.    
  6851 807-61-47       61    47.00       2499.    
  6852 805-65-357      65    357.0       2511.    
  6853 807-65-357      65    357.0       2507.    
  6854 805-71-362      71    362.0       2516.    
  6855 807-71-362      71    362.0       2516.    
  6856 810-43-4        43    4.000       2471.    
  6857 810-48-362      48    362.0       2465.    
  6858 810-61-47       61    47.00       2472.    
  6859 810-65-357      65    357.0       2509.    
  6860 810-71-362      71    362.0       2533.    
  6861 767-48-335      48    335.0       2562.    
  6862 761-31-335      31    335.0       2494.    
  6863 761-37-320      37    320.0       2488.    
  6864 761-42-355      42    355.0       2468.    
  6865 761-48-342      48    342.0       2479.    
  6866 761-56-18       56    18.00       2481.    
  6867 761-61-54       61    54.00       2480.    
  6868 761-66-33       66    33.00       2511.    
  6869 763-42-355      42    355.0       2484.    
  6870 763-48-342      48    342.0       2488.    
  6871 763-56-18       56    18.00       2488.    
  6872 763-61-56       61    56.00       2488.    
  6873 763-66-33       66    33.00       2514.    
  6874 802-56-9        56    9.000       2469.    
  6875 802-61-47       61    47.00       2460.    
  6876 802-65-357      65    357.0       2496.    
  6877 802-71-362      71    362.0       2515.    
  6878 781-61-54       61    54.00       2482.    
  6879 781-66-33       66    33.00       2514.    
  6880 775-56-27       56    27.00       2485.    
  6881 775-61-54       61    54.00       2484.    
  6882 775-66-33       66    33.00       2515.    
  6883 786-66-33       66    33.00       2504.    
  6884 782-26-336      26    336.0       2502.    
  6885 782-31-335      31    335.0       2489.    
  6886 782-43-4        43    4.000       2455.    
  6887 782-48-362      48    362.0       2463.    
  6888 782-56-9        56    9.000       2471.    
  6889 782-61-47       61    47.00       2456.    
  6890 782-65-357      65    357.0       2505.    
  6891 782-71-362      71    362.0       2523.    
  6892 755-27-12       27    12.00       2512.    
  6893 755-31-348      31    348.0       2492.    
  6894 755-37-26       37    26.00       2467.    
  6895 755-42-357      42    357.0       2472.    
  6896 755-48-342      48    342.0       2464.    
  6897 755-56-18       56    18.00       2477.    
  6898 755-60-320      60    320.0       2475.    
  6899 755-65-298      65    298.0       2509.    
  6900 755-71-365      71    365.0       2524.    
  6901 776-42-354      42    354.0       2621.    
     MULTIPLE LAYERS AND PROPORTIONS :    2, 0.57       3, 0.43
  6902 776-48-335      48    335.0       2625.    
     MULTIPLE LAYERS AND PROPORTIONS :    2, 0.57       3, 0.43
  6903 776-56-17       56    17.00       2621.    
     MULTIPLE LAYERS AND PROPORTIONS :    2, 0.57       3, 0.43
  6904 776-61-53       61    53.00       2616.    
     MULTIPLE LAYERS AND PROPORTIONS :    2, 0.57       3, 0.43
  6905 785-32-62       32    62.00       2582.    
  6906 785-37-32       37    32.00       2565.    
  6907 785-48-334      48    334.0       2578.    
  6908 785-56-19       56    19.00       2574.    
  6909 785-66-33       66    33.00       2559.    
  6910 784-32-62       32    62.00       2579.    
  6911 784-66-33       66    33.00       2552.    
  6912 777-32-6        32    6.000       2568.    
  6913 777-37-32       37    32.00       2563.    
  6914 777-42-355      42    355.0       2560.    
  6915 777-48-334      48    334.0       2557.    
  6916 777-56-18       56    18.00       2552.    
  6917 778-42-355      42    355.0       2583.    
  6918 778-48-334      48    334.0       2582.    
  6919 778-56-18       56    18.00       2572.    
  6920 778-60-321      60    321.0       2563.    
  6921 778-65-299      65    299.0       2553.    
  6922 778-71-365      71    365.0       2542.    
  6923 779-42-355      42    355.0       2598.    
  6924 779-48-334      48    334.0       2600.    
  6925 779-56-18       56    18.00       2594.    
  6926 779-60-321      60    321.0       2587.    
  6927 779-65-299      65    299.0       2574.    
  6928 779-71-365      71    365.0       2564.    
  6929 801-36-310      36    310.0       2530.    
  6930 797-65-356      65    356.0       2527.    
  6931 797-71-362      71    362.0       2516.    
  6932 768-42-355      42    355.0       2572.    
  6933 768-48-335      48    335.0       2565.    
  6934 732-36-316      36    316.0       2606.    
     MULTIPLE LAYERS AND PROPORTIONS :    1, 0.29       2, 0.36       3, 0.35
  6935 765-32-6        32    6.000       2602.    
  6936 765-42-355      42    355.0       2590.    
  6937 765-48-348      48    348.0       2588.    
  6938 765-56-11       56    11.00       2585.    
  6939 765-61-48       61    48.00       2578.    
  6940 765-65-356      65    356.0       2569.    
  6941 765-71-362      71    362.0       2559.    
  6942 718-37-32       37    32.00       2606.    
     MULTIPLE LAYERS AND PROPORTIONS :    2, 0.38       3, 0.62
  6943 718-48-334      48    334.0       2620.    
     MULTIPLE LAYERS AND PROPORTIONS :    2, 0.38       3, 0.62
  6944 718-56-16       56    16.00       2618.    
     MULTIPLE LAYERS AND PROPORTIONS :    2, 0.38       3, 0.62
  6945 718-61-53       61    53.00       2611.    
     MULTIPLE LAYERS AND PROPORTIONS :    2, 0.38       3, 0.62
  6946 718-66-32       66    32.00       2605.    
     MULTIPLE LAYERS AND PROPORTIONS :    2, 0.38       3, 0.62
  6947 718-71-60       71    60.00       2597.    
     MULTIPLE LAYERS AND PROPORTIONS :    2, 0.38       3, 0.62
  6948 728-7-85         7    85.00       2589.    
  6949 728-12-124      12    124.0       2591.    
  6950 728-17-78       17    78.00       2590.    
  6951 728-27-5        27    5.000       2585.    
  6952 728-32-6        32    6.000       2583.    
  6953 728-37-32       37    32.00       2577.    
  6954 728-42-355      42    355.0       2577.    
  6955 728-48-334      48    334.0       2571.    
  6956 728-56-18       56    18.00       2565.    
  6957 681-7-358        7    358.0       2622.    
  6958 681-12-103      12    103.0       2627.    
  6959 681-17-78       17    78.00       2625.    
  6960 681-32-61       32    61.00       2617.    
  6961 681-37-32       37    32.00       2608.    
  6962 662-71-365      71    365.0       2600.    
  6963 616-42-355      42    355.0       2610.    
  6964 616-56-16       56    16.00       2613.    
  6965 825-71-62       71    62.00       2683.    
  6966 608-32-62       32    62.00       2625.    
     MULTIPLE LAYERS AND PROPORTIONS :    2, 0.74       3, 0.26
  6967 608-48-348      48    348.0       2612.    
     MULTIPLE LAYERS AND PROPORTIONS :    2, 0.74       3, 0.26
  6968 608-56-11       56    11.00       2610.    
     MULTIPLE LAYERS AND PROPORTIONS :    2, 0.74       3, 0.26
  6969 608-61-41       61    41.00       2604.    
     MULTIPLE LAYERS AND PROPORTIONS :    2, 0.74       3, 0.26
  6970 608-65-355      65    355.0       2598.    
     MULTIPLE LAYERS AND PROPORTIONS :    2, 0.74       3, 0.26
  6971 608-71-365      71    365.0       2590.    
     MULTIPLE LAYERS AND PROPORTIONS :    2, 0.74       3, 0.26
  6972 559-8-73         8    73.00       2650.    
  6973 559-12-60       12    60.00       2648.    
  6974 559-17-78       17    78.00       2645.    
  6975 559-32-62       32    62.00       2635.    
  6976 559-36-335      36    335.0       2633.    
  6977 806-71-62       71    62.00       2679.    
  6978 771-43-68       43    68.00       2683.    
  6979 764-43-68       43    68.00       2679.    
  6980 764-48-342      48    342.0       2689.    
  6981 764-56-17       56    17.00       2685.    
  6982 764-61-60       61    60.00       2681.    
  6983 764-66-19       66    19.00       2671.    
  6984 764-71-63       71    63.00       2637.    
  6985 731-32-61       32    61.00       2676.    
  6986 731-42-355      42    355.0       2676.    
  6987 730-48-342      48    342.0       2689.    
  6988 730-56-17       56    17.00       2682.    
  6989 730-60-320      60    320.0       2678.    
  6990 730-71-365      71    365.0       2653.    
  6991 725-48-343      48    343.0       2682.    
  6992 725-56-16       56    16.00       2675.    
  6993 725-61-59       61    59.00       2671.    
  6994 725-66-19       66    19.00       2660.    
  6995 725-71-63       71    63.00       2649.    
  6996 683-7-360        7    360.0       2686.    
  6997 683-12-102      12    102.0       2682.    
  6998 683-17-78       17    78.00       2681.    
  6999 683-32-61       32    61.00       2678.    
  7000 683-37-32       37    32.00       2678.    
  7001 683-48-342      48    342.0       2690.    
  7002 528-56-10       56   10.000       2551.    
     MULTIPLE LAYERS AND PROPORTIONS :    1, 0.40       2, 0.27       3, 0.33
  7003 528-61-56       61    56.00       2563.    
     MULTIPLE LAYERS AND PROPORTIONS :    1, 0.40       2, 0.27       3, 0.33
  7004 528-66-34       66    34.00       2585.    
     MULTIPLE LAYERS AND PROPORTIONS :    1, 0.40       2, 0.27       3, 0.33
  7005 532-56-10       56   10.000       2465.    
  7006 532-61-56       61    56.00       2464.    
  7007 523-42-363      42    363.0       2441.    
  7008 523-48-343      48    343.0       2487.    
  7009 523-56-10       56   10.000       2443.    
  7010 523-61-56       61    56.00       2416.    
  7011 506-31-282      31    282.0       2501.    
  7012 506-56-10       56   10.000       2455.    
  7013 506-60-321      60    321.0       2429.    
  7014 516-56-10       56   10.000       2456.    
     MULTIPLE LAYERS AND PROPORTIONS :    2, 0.06       3, 0.94
  7015 516-61-56       61    56.00       2430.    
     MULTIPLE LAYERS AND PROPORTIONS :    2, 0.06       3, 0.94
  7016 507-17-55       17    55.00       2618.    
     MULTIPLE LAYERS AND PROPORTIONS :    1, 0.22       2, 0.56       3, 0.22
  7017 507-22-40       22    40.00       2610.    
     MULTIPLE LAYERS AND PROPORTIONS :    1, 0.22       2, 0.56       3, 0.22
  7018 507-26-299      26    299.0       2574.    
     MULTIPLE LAYERS AND PROPORTIONS :    1, 0.22       2, 0.56       3, 0.22
  7019 507-31-335      31    335.0       2512.    
     MULTIPLE LAYERS AND PROPORTIONS :    2, 0.78       3, 0.22
  7020 507-48-343      48    343.0       2489.    
     MULTIPLE LAYERS AND PROPORTIONS :    2, 0.78       3, 0.22
  7021 507-56-10       56   10.000       2454.    
     MULTIPLE LAYERS AND PROPORTIONS :    2, 0.78       3, 0.22
  7022 496-17-55       17    55.00       2616.    
  7023 496-22-40       22    40.00       2601.    
  7024 496-31-335      31    335.0       2517.    
  7025 492-56-10       56   10.000       2460.    
  7026 492-61-60       61    60.00       2433.    
  7027 492-66-31       66    31.00       2444.    
  7028 466-56-10       56   10.000       2485.    
  7029 466-61-60       61    60.00       2462.    
  7030 466-66-34       66    34.00       2469.    
  7031 462-56-10       56   10.000       2487.    
  7032 462-61-60       61    60.00       2467.    
  7033 462-66-34       66    34.00       2471.    
  7034 476-56-10       56   10.000       2543.    
  7035 476-61-60       61    60.00       2520.    
  7036 465-56-10       56   10.000       2488.    
     MULTIPLE LAYERS AND PROPORTIONS :    2, 0.14       3, 0.86
  7037 465-61-60       61    60.00       2465.    
     MULTIPLE LAYERS AND PROPORTIONS :    2, 0.14       3, 0.86
  7038 465-66-34       66    34.00       2471.    
     MULTIPLE LAYERS AND PROPORTIONS :    2, 0.14       3, 0.86
  7039 460-1-365        1    365.0       2621.    
 Observation within a steady-state time step has been moved to the end of the time step.
  7040 458-38-7        38    7.000       2512.    
  7041 458-48-336      48    336.0       2521.    
  7042 458-56-10       56   10.000       2500.    
  7043 458-61-60       61    60.00       2475.    
  7044 458-66-54       66    54.00       2482.    
  7045 458-71-34       71    34.00       2477.    
  7046 440-38-6        38    6.000       2577.    
     MULTIPLE LAYERS AND PROPORTIONS :    2, 0.80       3, 0.20
  7047 440-42-356      42    356.0       2567.    
     MULTIPLE LAYERS AND PROPORTIONS :    2, 0.80       3, 0.20
  7048 440-48-337      48    337.0       2577.    
     MULTIPLE LAYERS AND PROPORTIONS :    2, 0.80       3, 0.20
  7049 443-1-365        1    365.0       2655.    
 Observation within a steady-state time step has been moved to the end of the time step.
  7050 439-1-358        1    358.0       2668.    
 Observation within a steady-state time step has been moved to the end of the time step.
  7051 439-4-350        4    350.0       2664.    
  7052 449-10-89       10    89.00       2694.    
  7053 418-48-342      48    342.0       2555.    
  7054 418-56-18       56    18.00       2536.    
  7055 415-48-342      48    342.0       2559.    
  7056 415-56-18       56    18.00       2540.    
  7057 421-34-313      34    313.0       2575.    
  7058 421-48-343      48    343.0       2651.    
  7059 421-56-12       56    12.00       2520.    
  7060 421-61-60       61    60.00       2505.    
  7061 417-34-60       34    60.00       2622.    
  7062 412-6-290        6    290.0       2682.    
     MULTIPLE LAYERS AND PROPORTIONS :    1, 0.46       2, 0.54
  7063 412-10-297      10    297.0       2676.    
     MULTIPLE LAYERS AND PROPORTIONS :    1, 0.46       2, 0.54
  7064 412-17-4        17    4.000       2653.    
     MULTIPLE LAYERS AND PROPORTIONS :    1, 0.46       2, 0.54
  7065 412-27-12       27    12.00       2630.    
     MULTIPLE LAYERS AND PROPORTIONS :    1, 0.46       2, 0.54
  7066 412-38-6        38    6.000       2587.    
  7067 412-42-356      42    356.0       2584.    
  7068 412-48-336      48    336.0       2593.    
  7069 411-48-336      48    336.0       2587.    
     MULTIPLE LAYERS AND PROPORTIONS :    2, 0.15       3, 0.85
  7070 411-56-11       56    11.00       2548.    
     MULTIPLE LAYERS AND PROPORTIONS :    2, 0.15       3, 0.85
  7071 411-61-60       61    60.00       2529.    
     MULTIPLE LAYERS AND PROPORTIONS :    2, 0.15       3, 0.85
  7072 411-66-54       66    54.00       2524.    
     MULTIPLE LAYERS AND PROPORTIONS :    2, 0.15       3, 0.85
  7073 411-71-33       71    33.00       2510.    
     MULTIPLE LAYERS AND PROPORTIONS :    2, 0.15       3, 0.85
  7074 405-38-6        38    6.000       2576.    
     MULTIPLE LAYERS AND PROPORTIONS :    2, 0.06       3, 0.94
  7075 405-42-355      42    355.0       2545.    
     MULTIPLE LAYERS AND PROPORTIONS :    2, 0.06       3, 0.94
  7076 405-48-334      48    334.0       2569.    
     MULTIPLE LAYERS AND PROPORTIONS :    2, 0.06       3, 0.94
  7077 405-56-11       56    11.00       2572.    
     MULTIPLE LAYERS AND PROPORTIONS :    2, 0.06       3, 0.94
  7078 405-61-60       61    60.00       2539.    
     MULTIPLE LAYERS AND PROPORTIONS :    2, 0.06       3, 0.94
  7079 405-66-54       66    54.00       2530.    
     MULTIPLE LAYERS AND PROPORTIONS :    2, 0.06       3, 0.94
  7080 405-71-33       71    33.00       2515.    
  7081 396-17-4        17    4.000       2673.    
     MULTIPLE LAYERS AND PROPORTIONS :    1, 0.35       2, 0.44       3, 0.21
  7082 396-27-12       27    12.00       2636.    
     MULTIPLE LAYERS AND PROPORTIONS :    1, 0.35       2, 0.44       3, 0.21
  7083 396-38-6        38    6.000       2595.    
     MULTIPLE LAYERS AND PROPORTIONS :    2, 0.79       3, 0.21
  7084 396-42-355      42    355.0       2564.    
     MULTIPLE LAYERS AND PROPORTIONS :    2, 0.79       3, 0.21
  7085 396-48-336      48    336.0       2581.    
     MULTIPLE LAYERS AND PROPORTIONS :    2, 0.79       3, 0.21
  7086 393-1-358        1    358.0       2703.    
 Observation within a steady-state time step has been moved to the end of the time step.
  7087 398-38-6        38    6.000       2565.    
     MULTIPLE LAYERS AND PROPORTIONS :    2, 0.08       3, 0.92
  7088 398-42-356      42    356.0       2540.    
     MULTIPLE LAYERS AND PROPORTIONS :    2, 0.08       3, 0.92
  7089 387-42-356      42    356.0       2544.    
  7090 387-48-336      48    336.0       2564.    
  7091 387-56-11       56    11.00       2551.    
  7092 387-61-60       61    60.00       2535.    
  7093 387-66-54       66    54.00       2531.    
  7094 387-71-33       71    33.00       2515.    
  7095 386-17-4        17    4.000       2684.    
  7096 386-27-12       27    12.00       2644.    
  7097 386-48-336      48    336.0       2595.    
  7098 381-38-6        38    6.000       2578.    
     MULTIPLE LAYERS AND PROPORTIONS :    1, 0.25       2, 0.75
  7099 381-42-356      42    356.0       2574.    
     MULTIPLE LAYERS AND PROPORTIONS :    1, 0.25       2, 0.75
  7100 381-48-336      48    336.0       2584.    
     MULTIPLE LAYERS AND PROPORTIONS :    1, 0.25       2, 0.75
  7101 361-26-295      26    295.0       2654.    
  7102 361-43-14       43    14.00       2526.    
  7103 361-56-12       56    12.00       2552.    
  7104 361-61-60       61    60.00       2534.    
  7105 361-66-31       66    31.00       2524.    
  7106 365-1-365        1    365.0       2700.    
 Observation within a steady-state time step has been moved to the end of the time step.
  7107 364-42-356      42    356.0       2553.    
  7108 363-1-365        1    365.0       2702.    
 Observation within a steady-state time step has been moved to the end of the time step.
  7109 391-56-12       56    12.00       2551.    
     MULTIPLE LAYERS AND PROPORTIONS :    2, 0.22       3, 0.78
  7110 391-61-60       61    60.00       2535.    
     MULTIPLE LAYERS AND PROPORTIONS :    2, 0.22       3, 0.78
  7111 372-43-14       43    14.00       2535.    
  7112 372-56-12       56    12.00       2543.    
  7113 372-61-60       61    60.00       2535.    
  7114 375-56-19       56    19.00       2559.    
  7115 358-56-19       56    19.00       2556.    
  7116 350-56-19       56    19.00       2568.    
  7117 343-56-19       56    19.00       2566.    
  7118 345-43-6        43    6.000       2552.    
  7119 356-56-12       56    12.00       2558.    
  7120 356-61-60       61    60.00       2544.    
  7121 352-17-4        17    4.000       2694.    
  7122 352-22-51       22    51.00       2686.    
  7123 352-27-14       27    14.00       2662.    
  7124 342-37-342      37    342.0       2587.    
  7125 342-43-14       43    14.00       2567.    
  7126 349-27-13       27    13.00       2659.    
  7127 348-56-11       56    11.00       2621.    
     MULTIPLE LAYERS AND PROPORTIONS :    1, 0.59       2, 0.41
  7128 348-61-54       61    54.00       2610.    
     MULTIPLE LAYERS AND PROPORTIONS :    1, 0.59       2, 0.41
  7129 348-66-35       66    35.00       2604.    
     MULTIPLE LAYERS AND PROPORTIONS :    1, 0.59       2, 0.41
  7130 351-3-56         3    56.00       2741.    
     MULTIPLE LAYERS AND PROPORTIONS :    1, 0.57       2, 0.43
  7131 351-22-46       22    46.00       2687.    
     MULTIPLE LAYERS AND PROPORTIONS :    1, 0.57       2, 0.43
  7132 351-27-62       27    62.00       2672.    
     MULTIPLE LAYERS AND PROPORTIONS :    1, 0.57       2, 0.43
  7133 351-37-342      37    342.0       2622.    
  7134 351-43-14       43    14.00       2621.    
  7135 351-48-337      48    337.0       2632.    
  7136 351-56-11       56    11.00       2632.    
  7137 351-61-54       61    54.00       2623.    
  7138 351-66-35       66    35.00       2620.    
  7139 346-17-4        17    4.000       2697.    
  7140 346-27-14       27    14.00       2658.    
  7141 347-11-304      11    304.0       2719.    
     MULTIPLE LAYERS AND PROPORTIONS :    1, 0.49       2, 0.51
  7142 347-17-59       17    59.00       2705.    
     MULTIPLE LAYERS AND PROPORTIONS :    1, 0.49       2, 0.51
  7143 347-22-46       22    46.00       2680.    
     MULTIPLE LAYERS AND PROPORTIONS :    1, 0.49       2, 0.51
  7144 347-27-14       27    14.00       2664.    
     MULTIPLE LAYERS AND PROPORTIONS :    1, 0.49       2, 0.51
  7145 347-31-335      31    335.0       2647.    
     MULTIPLE LAYERS AND PROPORTIONS :    1, 0.49       2, 0.51
  7146 347-56-11       56    11.00       2625.    
  7147 347-61-54       61    54.00       2617.    
  7148 347-66-35       66    35.00       2608.    
  7149 341-17-4        17    4.000       2701.    
  7150 524-37-354      37    354.0       2605.    
  7151 524-43-4        43    4.000       2599.    
  7152 524-48-335      48    335.0       2592.    
  7153 524-56-9        56    9.000       2592.    
  7154 524-61-47       61    47.00       2583.    
  7155 524-65-357      65    357.0       2580.    
  7156 524-71-362      71    362.0       2584.    
  7157 3418-43-4       43    4.000       2540.    
     MULTIPLE LAYERS AND PROPORTIONS :    1, 0.74       2, 0.26
  7158 3418-48-362     48    362.0       2529.    
     MULTIPLE LAYERS AND PROPORTIONS :    1, 0.74       2, 0.26
  7159 3418-56-9       56    9.000       2554.    
     MULTIPLE LAYERS AND PROPORTIONS :    1, 0.74       2, 0.26
  7160 3418-65-357     65    357.0       2528.    
     MULTIPLE LAYERS AND PROPORTIONS :    1, 0.74       2, 0.26
  7161 3418-71-362     71    362.0       2567.    
     MULTIPLE LAYERS AND PROPORTIONS :    1, 0.74       2, 0.26
  7162 525-35-347      35    347.0       2563.    
  7163 525-56-9        56    9.000       2518.    
  7164 525-71-362      71    362.0       2568.    
  7165 514-31-335      31    335.0       2560.    
     MULTIPLE LAYERS AND PROPORTIONS :    1, 0.30       2, 0.70
  7166 514-36-360      36    360.0       2541.    
     MULTIPLE LAYERS AND PROPORTIONS :    1, 0.30       2, 0.70
  7167 514-43-4        43    4.000       2545.    
     MULTIPLE LAYERS AND PROPORTIONS :    1, 0.30       2, 0.70
  7168 514-48-362      48    362.0       2545.    
     MULTIPLE LAYERS AND PROPORTIONS :    1, 0.30       2, 0.70
  7169 514-56-9        56    9.000       2548.    
     MULTIPLE LAYERS AND PROPORTIONS :    1, 0.30       2, 0.70
  7170 514-61-47       61    47.00       2536.    
     MULTIPLE LAYERS AND PROPORTIONS :    1, 0.30       2, 0.70
  7171 514-65-357      65    357.0       2542.    
     MULTIPLE LAYERS AND PROPORTIONS :    1, 0.30       2, 0.70
  7172 514-71-362      71    362.0       2568.    
     MULTIPLE LAYERS AND PROPORTIONS :    1, 0.30       2, 0.70
  7173 513-32-41       32    41.00       2552.    
     MULTIPLE LAYERS AND PROPORTIONS :    1, 0.39       2, 0.61
  7174 513-39-60       39    60.00       2558.    
     MULTIPLE LAYERS AND PROPORTIONS :    1, 0.39       2, 0.61
  7175 513-43-4        43    4.000       2538.    
     MULTIPLE LAYERS AND PROPORTIONS :    1, 0.39       2, 0.61
  7176 513-48-362      48    362.0       2544.    
     MULTIPLE LAYERS AND PROPORTIONS :    1, 0.39       2, 0.61
  7177 513-56-9        56    9.000       2553.    
     MULTIPLE LAYERS AND PROPORTIONS :    1, 0.39       2, 0.61
  7178 513-61-47       61    47.00       2533.    
     MULTIPLE LAYERS AND PROPORTIONS :    1, 0.39       2, 0.61
  7179 513-65-357      65    357.0       2541.    
     MULTIPLE LAYERS AND PROPORTIONS :    1, 0.39       2, 0.61
  7180 513-71-362      71    362.0       2568.    
     MULTIPLE LAYERS AND PROPORTIONS :    1, 0.39       2, 0.61
  7181 526-11-307      11    307.0       2603.    
  7182 526-17-53       17    53.00       2591.    
  7183 526-22-38       22    38.00       2579.    
  7184 487-17-4        17    4.000       2600.    
     MULTIPLE LAYERS AND PROPORTIONS :    1, 0.87       2, 0.13
  7185 487-27-10       27   10.000       2590.    
     MULTIPLE LAYERS AND PROPORTIONS :    1, 0.87       2, 0.13
  7186 487-38-6        38    6.000       2565.    
     MULTIPLE LAYERS AND PROPORTIONS :    1, 0.87       2, 0.13
  7187 487-42-356      42    356.0       2539.    
     MULTIPLE LAYERS AND PROPORTIONS :    1, 0.87       2, 0.13
  7188 494-42-355      42    355.0       2519.    
     MULTIPLE LAYERS AND PROPORTIONS :    2, 0.16       3, 0.84
  7189 494-48-334      48    334.0       2533.    
     MULTIPLE LAYERS AND PROPORTIONS :    2, 0.16       3, 0.84
  7190 494-56-10       56   10.000       2544.    
     MULTIPLE LAYERS AND PROPORTIONS :    2, 0.16       3, 0.84
  7191 494-61-60       61    60.00       2518.    
     MULTIPLE LAYERS AND PROPORTIONS :    2, 0.16       3, 0.84
  7192 494-66-49       66    49.00       2535.    
     MULTIPLE LAYERS AND PROPORTIONS :    2, 0.16       3, 0.84
  7193 494-71-33       71    33.00       2549.    
     MULTIPLE LAYERS AND PROPORTIONS :    2, 0.16       3, 0.84
  7194 530-38-6        38    6.000       2527.    
     MULTIPLE LAYERS AND PROPORTIONS :    2, 0.22       3, 0.78
  7195 530-48-334      48    334.0       2529.    
     MULTIPLE LAYERS AND PROPORTIONS :    2, 0.22       3, 0.78
  7196 530-56-10       56   10.000       2531.    
     MULTIPLE LAYERS AND PROPORTIONS :    2, 0.22       3, 0.78
  7197 530-61-60       61    60.00       2523.    
     MULTIPLE LAYERS AND PROPORTIONS :    2, 0.22       3, 0.78
  7198 530-66-49       66    49.00       2543.    
     MULTIPLE LAYERS AND PROPORTIONS :    2, 0.22       3, 0.78
  7199 530-71-33       71    33.00       2549.    
     MULTIPLE LAYERS AND PROPORTIONS :    2, 0.22       3, 0.78
  7200 509-38-6        38    6.000       2536.    
     MULTIPLE LAYERS AND PROPORTIONS :    2, 0.43       3, 0.57
  7201 509-42-355      42    355.0       2502.    
     MULTIPLE LAYERS AND PROPORTIONS :    2, 0.43       3, 0.57
  7202 509-48-334      48    334.0       2532.    
     MULTIPLE LAYERS AND PROPORTIONS :    2, 0.43       3, 0.57
  7203 509-56-10       56   10.000       2532.    
     MULTIPLE LAYERS AND PROPORTIONS :    2, 0.43       3, 0.57
  7204 509-61-60       61    60.00       2516.    
     MULTIPLE LAYERS AND PROPORTIONS :    2, 0.43       3, 0.57
  7205 509-66-49       66    49.00       2535.    
     MULTIPLE LAYERS AND PROPORTIONS :    2, 0.43       3, 0.57
  7206 509-71-33       71    33.00       2542.    
     MULTIPLE LAYERS AND PROPORTIONS :    2, 0.43       3, 0.57
  7207 518-17-3        17    3.000       2603.    
  7208 518-27-11       27    11.00       2565.    
  7209 518-42-355      42    355.0       2539.    
  7210 510-1-358        1    358.0       2622.    
 Observation within a steady-state time step has been moved to the end of the time step.
  7211 495-1-358        1    358.0       2628.    
 Observation within a steady-state time step has been moved to the end of the time step.
  7212 491-7-49         7    49.00       2629.    
  7213 490-7-49         7    49.00       2623.    
  7214 490-17-4        17    4.000       2607.    
  7215 490-27-10       27   10.000       2601.    
  7216 481-38-7        38    7.000       2576.    
     MULTIPLE LAYERS AND PROPORTIONS :    1, 0.11       2, 0.22       3, 0.67
  7217 481-42-355      42    355.0       2557.    
     MULTIPLE LAYERS AND PROPORTIONS :    1, 0.11       2, 0.22       3, 0.67
  7218 481-48-334      48    334.0       2565.    
     MULTIPLE LAYERS AND PROPORTIONS :    1, 0.11       2, 0.22       3, 0.67
  7219 481-56-10       56   10.000       2566.    
     MULTIPLE LAYERS AND PROPORTIONS :    1, 0.11       2, 0.22       3, 0.67
  7220 481-61-60       61    60.00       2548.    
     MULTIPLE LAYERS AND PROPORTIONS :    2, 0.33       3, 0.67
  7221 481-66-49       66    49.00       2562.    
     MULTIPLE LAYERS AND PROPORTIONS :    2, 0.33       3, 0.67
  7222 481-71-33       71    33.00       2568.    
     MULTIPLE LAYERS AND PROPORTIONS :    2, 0.33       3, 0.67
  7223 473-38-7        38    7.000       2580.    
     MULTIPLE LAYERS AND PROPORTIONS :    1, 0.92       2, 0.08
  7224 473-42-355      42    355.0       2563.    
     MULTIPLE LAYERS AND PROPORTIONS :    1, 0.92       2, 0.08
  7225 484-38-6        38    6.000       2395.    
  7226 455-22-51       22    51.00       2600.    
     MULTIPLE LAYERS AND PROPORTIONS :    2, 0.08       3, 0.92
  7227 455-27-11       27    11.00       2605.    
     MULTIPLE LAYERS AND PROPORTIONS :    2, 0.08       3, 0.92
  7228 455-38-7        38    7.000       2560.    
     MULTIPLE LAYERS AND PROPORTIONS :    2, 0.08       3, 0.92
  7229 455-42-355      42    355.0       2542.    
     MULTIPLE LAYERS AND PROPORTIONS :    2, 0.08       3, 0.92
  7230 455-48-336      48    336.0       2559.    
     MULTIPLE LAYERS AND PROPORTIONS :    2, 0.08       3, 0.92
  7231 457-1-358        1    358.0       2645.    
 Observation within a steady-state time step has been moved to the end of the time step.
  7232 456-38-6        38    6.000       2573.    
  7233 456-42-356      42    356.0       2540.    
  7234 456-48-334      48    334.0       2557.    
  7235 456-56-10       56   10.000       2556.    
  7236 456-61-60       61    60.00       2533.    
  7237 456-66-54       66    54.00       2542.    
  7238 456-71-33       71    33.00       2543.    
  7239 454-8-253        8    253.0       2652.    
     MULTIPLE LAYERS AND PROPORTIONS :    2, 0.21       3, 0.79
  7240 454-38-6        38    6.000       2572.    
     MULTIPLE LAYERS AND PROPORTIONS :    2, 0.21       3, 0.79
  7241 454-42-355      42    355.0       2549.    
     MULTIPLE LAYERS AND PROPORTIONS :    2, 0.21       3, 0.79
  7242 454-48-334      48    334.0       2559.    
     MULTIPLE LAYERS AND PROPORTIONS :    2, 0.21       3, 0.79
  7243 454-56-10       56   10.000       2567.    
     MULTIPLE LAYERS AND PROPORTIONS :    2, 0.21       3, 0.79
  7244 454-61-60       61    60.00       2542.    
     MULTIPLE LAYERS AND PROPORTIONS :    2, 0.21       3, 0.79
  7245 454-66-49       66    49.00       2551.    
     MULTIPLE LAYERS AND PROPORTIONS :    2, 0.21       3, 0.79
  7246 454-71-33       71    33.00       2555.    
     MULTIPLE LAYERS AND PROPORTIONS :    2, 0.21       3, 0.79
  7247 483-48-334      48    334.0       2555.    
  7248 475-1-365        1    365.0       2620.    
 Observation within a steady-state time step has been moved to the end of the time step.
  7249 472-17-4        17    4.000       2609.    
     MULTIPLE LAYERS AND PROPORTIONS :    1, 0.47       2, 0.53
  7250 472-27-12       27    12.00       2590.    
     MULTIPLE LAYERS AND PROPORTIONS :    1, 0.47       2, 0.53
  7251 472-38-6        38    6.000       2566.    
     MULTIPLE LAYERS AND PROPORTIONS :    1, 0.47       2, 0.53
  7252 472-42-355      42    355.0       2533.    
     MULTIPLE LAYERS AND PROPORTIONS :    1, 0.47       2, 0.53
  7253 472-48-334      48    334.0       2548.    
     MULTIPLE LAYERS AND PROPORTIONS :    1, 0.47       2, 0.53
  7254 464-17-4        17    4.000       2599.    
  7255 464-27-12       27    12.00       2591.    
  7256 464-48-336      48    336.0       2546.    
  7257 442-71-61       71    61.00       2631.    
  7258 438-48-336      48    336.0       2577.    
  7259 436-71-336      71    336.0       2533.    
  7260 422-17-55       17    55.00       2653.    
  7261 422-22-38       22    38.00       2624.    
  7262 422-27-12       27    12.00       2625.    
  7263 422-31-335      31    335.0       2595.    
  7264 422-38-91       38    91.00       2581.    
  7265 426-48-336      48    336.0       2582.    
  7266 426-56-13       56    13.00       2579.    
  7267 426-66-34       66    34.00       2577.    
  7268 430-7-49         7    49.00       2654.    
  7269 430-17-4        17    4.000       2626.    
  7270 430-27-10       27   10.000       2612.    
  7271 432-38-6        38    6.000       2588.    
     MULTIPLE LAYERS AND PROPORTIONS :    2, 0.26       3, 0.74
  7272 432-42-356      42    356.0       2564.    
     MULTIPLE LAYERS AND PROPORTIONS :    2, 0.26       3, 0.74
  7273 432-48-334      48    334.0       2580.    
     MULTIPLE LAYERS AND PROPORTIONS :    2, 0.26       3, 0.74
  7274 432-56-10       56   10.000       2578.    
     MULTIPLE LAYERS AND PROPORTIONS :    2, 0.26       3, 0.74
  7275 432-61-60       61    60.00       2553.    
     MULTIPLE LAYERS AND PROPORTIONS :    2, 0.26       3, 0.74
  7276 432-66-49       66    49.00       2562.    
     MULTIPLE LAYERS AND PROPORTIONS :    2, 0.26       3, 0.74
  7277 432-71-33       71    33.00       2563.    
     MULTIPLE LAYERS AND PROPORTIONS :    2, 0.26       3, 0.74
  7278 452-48-335      48    335.0       2553.    
  7279 452-56-11       56    11.00       2550.    
  7280 431-1-358        1    358.0       2659.    
 Observation within a steady-state time step has been moved to the end of the time step.
  7281 431-6-340        6    340.0       2656.    
  7282 431-11-333      11    333.0       2649.    
  7283 431-36-38       36    38.00       2623.    
  7284 429-42-356      42    356.0       2535.    
     MULTIPLE LAYERS AND PROPORTIONS :    2, 0.07       3, 0.93
  7285 429-48-334      48    334.0       2555.    
     MULTIPLE LAYERS AND PROPORTIONS :    2, 0.07       3, 0.93
  7286 429-56-11       56    11.00       2556.    
     MULTIPLE LAYERS AND PROPORTIONS :    2, 0.07       3, 0.93
  7287 429-61-60       61    60.00       2526.    
     MULTIPLE LAYERS AND PROPORTIONS :    2, 0.07       3, 0.93
  7288 429-66-54       66    54.00       2537.    
     MULTIPLE LAYERS AND PROPORTIONS :    2, 0.07       3, 0.93
  7289 429-71-33       71    33.00       2536.    
     MULTIPLE LAYERS AND PROPORTIONS :    2, 0.07       3, 0.93
  7290 420-17-7        17    7.000       2664.    
     MULTIPLE LAYERS AND PROPORTIONS :    1, 0.38       2, 0.62
  7291 420-27-10       27   10.000       2631.    
     MULTIPLE LAYERS AND PROPORTIONS :    1, 0.38       2, 0.62
  7292 420-48-335      48    335.0       2595.    
  7293 407-38-6        38    6.000       2581.    
     MULTIPLE LAYERS AND PROPORTIONS :    2, 0.85       3, 0.15
  7294 407-42-355      42    355.0       2554.    
     MULTIPLE LAYERS AND PROPORTIONS :    2, 0.85       3, 0.15
  7295 407-48-334      48    334.0       2561.    
     MULTIPLE LAYERS AND PROPORTIONS :    2, 0.85       3, 0.15
  7296 401-38-6        38    6.000       2603.    
  7297 401-42-355      42    355.0       2590.    
  7298 401-48-335      48    335.0       2603.    
  7299 410-42-355      42    355.0       2552.    
  7300 410-48-334      48    334.0       2569.    
  7301 410-56-10       56   10.000       2565.    
  7302 410-61-60       61    60.00       2542.    
  7303 410-66-49       66    49.00       2542.    
  7304 410-71-33       71    33.00       2532.    
  7305 376-31-348      31    348.0       2628.    
  7306 376-37-19       37    19.00       2619.    
  7307 376-43-47       43    47.00       2613.    
  7308 376-48-343      48    343.0       2612.    
  7309 376-56-11       56    11.00       2610.    
  7310 376-60-321      60    321.0       2601.    
  7311 376-65-298      65    298.0       2592.    
  7312 414-71-365      71    365.0       2596.    
  7313 416-34-357      34    357.0       2620.    
     MULTIPLE LAYERS AND PROPORTIONS :    1, 0.85       2, 0.15
  7314 366-17-55       17    55.00       2706.    
  7315 366-22-33       22    33.00       2684.    
  7316 366-27-10       27   10.000       2661.    
  7317 366-33-10       33   10.000       2665.    
  7318 370-17-55       17    55.00       2688.    
     MULTIPLE LAYERS AND PROPORTIONS :    1, 0.90       2, 0.10
  7319 370-22-46       22    46.00       2656.    
     MULTIPLE LAYERS AND PROPORTIONS :    1, 0.90       2, 0.10
  7320 370-31-335      31    335.0       2635.    
     MULTIPLE LAYERS AND PROPORTIONS :    1, 0.90       2, 0.10
  7321 370-37-91       37    91.00       2621.    
     MULTIPLE LAYERS AND PROPORTIONS :    1, 0.90       2, 0.10
  7322 394-27-10       27   10.000       2646.    
  7323 389-42-355      42    355.0       2540.    
  7324 389-48-334      48    334.0       2565.    
  7325 389-56-10       56   10.000       2558.    
  7326 389-61-60       61    60.00       2538.    
  7327 389-66-48       66    48.00       2533.    
  7328 389-71-33       71    33.00       2536.    
  7329 382-48-334      48    334.0       2611.    
     MULTIPLE LAYERS AND PROPORTIONS :    2, 0.91       3, 0.09
  7330 395-17-4        17    4.000       2679.    
     MULTIPLE LAYERS AND PROPORTIONS :    1, 0.75       2, 0.25
  7331 395-27-13       27    13.00       2665.    
     MULTIPLE LAYERS AND PROPORTIONS :    1, 0.75       2, 0.25
  7332 395-38-6        38    6.000       2584.    
  7333 395-42-356      42    356.0       2555.    
  7334 395-48-334      48    334.0       2577.    
  7335 395-56-11       56    11.00       2573.    
  7336 395-61-60       61    60.00       2524.    
  7337 395-66-54       66    54.00       2507.    
  7338 395-71-33       71    33.00       2530.    
  7339 379-42-356      42    356.0       2562.    
  7340 379-48-334      48    334.0       2586.    
  7341 379-56-11       56    11.00       2583.    
  7342 385-7-49         7    49.00       2700.    
  7343 384-7-49         7    49.00       2698.    
  7344 374-1-358        1    358.0       2693.    
 Observation within a steady-state time step has been moved to the end of the time step.
  7345 362-38-6        38    6.000       2600.    
     MULTIPLE LAYERS AND PROPORTIONS :    2, 0.14       3, 0.86
  7346 362-42-355      42    355.0       2577.    
     MULTIPLE LAYERS AND PROPORTIONS :    2, 0.14       3, 0.86
  7347 362-48-334      48    334.0       2593.    
     MULTIPLE LAYERS AND PROPORTIONS :    2, 0.14       3, 0.86
  7348 362-56-10       56   10.000       2592.    
     MULTIPLE LAYERS AND PROPORTIONS :    2, 0.14       3, 0.86
  7349 362-61-60       61    60.00       2572.    
     MULTIPLE LAYERS AND PROPORTIONS :    2, 0.14       3, 0.86
  7350 362-66-48       66    48.00       2562.    
     MULTIPLE LAYERS AND PROPORTIONS :    2, 0.14       3, 0.86
  7351 362-71-33       71    33.00       2575.    
  7352 360-26-313      26    313.0       2647.    
     MULTIPLE LAYERS AND PROPORTIONS :    1, 0.37       2, 0.34       3, 0.29
  7353 360-38-6        38    6.000       2600.    
     MULTIPLE LAYERS AND PROPORTIONS :    1, 0.37       2, 0.34       3, 0.29
  7354 371-38-6        38    6.000       2598.    
     MULTIPLE LAYERS AND PROPORTIONS :    1, 0.46       2, 0.33       3, 0.21
  7355 371-42-355      42    355.0       2579.    
     MULTIPLE LAYERS AND PROPORTIONS :    1, 0.46       2, 0.33       3, 0.21
  7356 355-48-342      48    342.0       2616.    
  7357 355-56-13       56    13.00       2614.    
  7358 355-61-61       61    61.00       2600.    
  7359 355-66-32       66    32.00       2588.    
  7360 353-1-365        1    365.0       2705.    
 Observation within a steady-state time step has been moved to the end of the time step.
  7361 353-8-22         8    22.00       2704.    
  7362 353-11-304      11    304.0       2703.    
  7363 353-61-61       61    61.00       2610.    
  7364 353-66-32       66    32.00       2603.    
  7365 501-27-60       27    60.00       2646.    
  7366 501-37-32       37    32.00       2639.    
  7367 501-43-53       43    53.00       2640.    
  7368 501-48-336      48    336.0       2640.    
  7369 501-56-17       56    17.00       2639.    
  7370 501-60-320      60    320.0       2639.    
  7371 501-65-299      65    299.0       2639.    
  7372 501-71-365      71    365.0       2638.    
  7373 536-61-52       61    52.00       2579.    
  7374 536-66-18       66    18.00       2575.    
  7375 536-71-62       71    62.00       2575.    
  7376 540-43-50       43    50.00       2603.    
  7377 540-56-17       56    17.00       2588.    
  7378 451-37-32       37    32.00       2707.    
  7379 451-43-53       43    53.00       2715.    
  7380 451-48-336      48    336.0       2727.    
  7381 451-56-17       56    17.00       2744.    
  7382 451-61-52       61    52.00       2743.    
  7383 451-71-336      71    336.0       2764.    
  7384 419-71-61       71    61.00       2695.    
  7385 425-71-61       71    61.00       2749.    
  7386 397-48-336      48    336.0       2815.    
  7387 378-71-61       71    61.00       2711.    
  7388 477-7-99         7    99.00       2664.    
  7389 477-11-60       11    60.00       2664.    
  7390 477-17-53       17    53.00       2663.    
  7391 477-22-39       22    39.00       2662.    
  7392 477-32-6        32    6.000       2659.    
  7393 477-37-32       37    32.00       2648.    
  7394 478-48-335      48    335.0       2652.    
  7395 478-56-17       56    17.00       2645.    
  7396 218-42-337      42    337.0       3145.    
  7397 337-37-343      37    343.0       2555.    
  7398 337-43-14       43    14.00       2542.    
  7399 337-56-12       56    12.00       2564.    
  7400 337-61-61       61    61.00       2546.    
  7401 337-66-31       66    31.00       2536.    
  7402 328-56-11       56    11.00       2652.    
     MULTIPLE LAYERS AND PROPORTIONS :    1, 0.86       2, 0.14
  7403 328-61-61       61    61.00       2636.    
     MULTIPLE LAYERS AND PROPORTIONS :    1, 0.86       2, 0.14
  7404 328-66-32       66    32.00       2627.    
     MULTIPLE LAYERS AND PROPORTIONS :    1, 0.86       2, 0.14
  7405 329-1-365        1    365.0       2746.    
 Observation within a steady-state time step has been moved to the end of the time step.
  7406 327-1-365        1    365.0       2754.    
 Observation within a steady-state time step has been moved to the end of the time step.
  7407 326-26-319      26    319.0       2678.    
     MULTIPLE LAYERS AND PROPORTIONS :    1, 0.24       2, 0.12       3, 0.64
  7408 326-31-335      31    335.0       2666.    
     MULTIPLE LAYERS AND PROPORTIONS :    1, 0.24       2, 0.12       3, 0.64
  7409 326-38-32       38    32.00       2654.    
     MULTIPLE LAYERS AND PROPORTIONS :    1, 0.24       2, 0.13       3, 0.63
  7410 326-56-11       56    11.00       2626.    
     MULTIPLE LAYERS AND PROPORTIONS :    1, 0.24       2, 0.12       3, 0.64
  7411 326-61-54       61    54.00       2609.    
     MULTIPLE LAYERS AND PROPORTIONS :    1, 0.24       2, 0.12       3, 0.64
  7412 326-66-32       66    32.00       2598.    
     MULTIPLE LAYERS AND PROPORTIONS :    1, 0.24       2, 0.12       3, 0.64
  7413 321-43-14       43    14.00       2563.    
  7414 321-56-12       56    12.00       2596.    
  7415 322-1-358        1    358.0       2756.    
 Observation within a steady-state time step has been moved to the end of the time step.
  7416 322-6-340        6    340.0       2750.    
  7417 322-11-333      11    333.0       2738.    
  7418 322-16-301      16    301.0       2717.    
  7419 322-22-46       22    46.00       2703.    
  7420 322-27-32       27    32.00       2691.    
  7421 308-34-333      34    333.0       2660.    
     MULTIPLE LAYERS AND PROPORTIONS :    1, 0.11       2, 0.08       3, 0.81
  7422 316-7-283        7    283.0       2748.    
  7423 316-11-333      11    333.0       2738.    
  7424 316-16-301      16    301.0       2734.    
  7425 316-22-46       22    46.00       2699.    
  7426 316-27-11       27    11.00       2692.    
  7427 316-31-335      31    335.0       2674.    
  7428 316-38-32       38    32.00       2663.    
  7429 316-48-337      48    337.0       2639.    
  7430 316-56-11       56    11.00       2632.    
  7431 316-60-321      60    321.0       2616.    
  7432 316-65-300      65    300.0       2582.    
  7433 310-1-365        1    365.0       2757.    
 Observation within a steady-state time step has been moved to the end of the time step.
  7434 310-27-49       27    49.00       2692.    
  7435 310-56-11       56    11.00       2649.    
  7436 310-61-54       61    54.00       2633.    
  7437 310-66-32       66    32.00       2621.    
  7438 324-1-365        1    365.0       2740.    
 Observation within a steady-state time step has been moved to the end of the time step.
  7439 307-56-11       56    11.00       2680.    
  7440 335-1-365        1    365.0       2755.    
 Observation within a steady-state time step has been moved to the end of the time step.
  7441 333-56-9        56    9.000       2601.    
     MULTIPLE LAYERS AND PROPORTIONS :    2, 0.30       3, 0.70
  7442 323-56-11       56    11.00       2640.    
  7443 323-61-61       61    61.00       2610.    
  7444 311-17-5        17    5.000       2717.    
     MULTIPLE LAYERS AND PROPORTIONS :    1, 0.57       2, 0.27       3, 0.16
  7445 311-27-14       27    14.00       2682.    
     MULTIPLE LAYERS AND PROPORTIONS :    1, 0.57       2, 0.27       3, 0.16
  7446 314-56-25       56    25.00       2590.    
  7447 314-61-62       61    62.00       2580.    
  7448 318-48-343      48    343.0       2595.    
  7449 302-42-348      42    348.0       2592.    
  7450 301-22-62       22    62.00       2697.    
  7451 301-27-6        27    6.000       2674.    
  7452 301-38-32       38    32.00       2639.    
  7453 295-22-62       22    62.00       2740.    
  7454 295-38-5        38    5.000       2669.    
  7455 295-56-24       56    24.00       2659.    
  7456 295-66-32       66    32.00       2645.    
  7457 281-38-5        38    5.000       2639.    
  7458 281-42-348      42    348.0       2619.    
  7459 270-22-62       22    62.00       2711.    
  7460 270-38-32       38    32.00       2656.    
  7461 271-38-5        38    5.000       2645.    
  7462 271-42-348      42    348.0       2625.    
  7463 271-48-337      48    337.0       2650.    
  7464 271-56-10       56   10.000       2638.    
  7465 271-61-61       61    61.00       2623.    
  7466 271-66-61       66    61.00       2620.    
  7467 290-56-25       56    25.00       2624.    
     MULTIPLE LAYERS AND PROPORTIONS :    2, 0.33       3, 0.67
  7468 290-61-62       61    62.00       2610.    
     MULTIPLE LAYERS AND PROPORTIONS :    2, 0.33       3, 0.67
  7469 280-17-4        17    4.000       2729.    
  7470 280-27-14       27    14.00       2698.    
  7471 278-7-274        7    274.0       2772.    
     MULTIPLE LAYERS AND PROPORTIONS :    1, 0.77       2, 0.23
  7472 274-7-274        7    274.0       2767.    
     MULTIPLE LAYERS AND PROPORTIONS :    1, 0.84       2, 0.16
  7473 274-38-7        38    7.000       2670.    
     MULTIPLE LAYERS AND PROPORTIONS :    1, 0.84       2, 0.16
  7474 274-42-355      42    355.0       2647.    
     MULTIPLE LAYERS AND PROPORTIONS :    1, 0.84       2, 0.16
  7475 274-48-335      48    335.0       2671.    
     MULTIPLE LAYERS AND PROPORTIONS :    1, 0.84       2, 0.16
  7476 274-56-11       56    11.00       2668.    
     MULTIPLE LAYERS AND PROPORTIONS :    1, 0.84       2, 0.16
  7477 279-17-5        17    5.000       2745.    
     MULTIPLE LAYERS AND PROPORTIONS :    1, 0.65       2, 0.35
  7478 279-42-355      42    355.0       2665.    
     MULTIPLE LAYERS AND PROPORTIONS :    1, 0.65       2, 0.35
  7479 282-42-355      42    355.0       2655.    
     MULTIPLE LAYERS AND PROPORTIONS :    2, 0.19       3, 0.81
  7480 282-48-335      48    335.0       2666.    
     MULTIPLE LAYERS AND PROPORTIONS :    2, 0.19       3, 0.81
  7481 282-56-11       56    11.00       2674.    
     MULTIPLE LAYERS AND PROPORTIONS :    2, 0.19       3, 0.81
  7482 282-61-60       61    60.00       2656.    
     MULTIPLE LAYERS AND PROPORTIONS :    2, 0.19       3, 0.81
  7483 282-66-48       66    48.00       2645.    
     MULTIPLE LAYERS AND PROPORTIONS :    2, 0.19       3, 0.81
  7484 265-42-355      42    355.0       2668.    
     MULTIPLE LAYERS AND PROPORTIONS :    2, 0.13       3, 0.87
  7485 265-48-335      48    335.0       2690.    
     MULTIPLE LAYERS AND PROPORTIONS :    2, 0.13       3, 0.87
  7486 265-56-11       56    11.00       2688.    
     MULTIPLE LAYERS AND PROPORTIONS :    2, 0.13       3, 0.87
  7487 265-61-60       61    60.00       2671.    
     MULTIPLE LAYERS AND PROPORTIONS :    2, 0.13       3, 0.87
  7488 265-66-48       66    48.00       2660.    
     MULTIPLE LAYERS AND PROPORTIONS :    2, 0.13       3, 0.87
  7489 265-71-34       71    34.00       2645.    
     MULTIPLE LAYERS AND PROPORTIONS :    2, 0.13       3, 0.87
  7490 264-38-7        38    7.000       2690.    
  7491 264-42-355      42    355.0       2677.    
  7492 264-48-335      48    335.0       2699.    
  7493 264-56-11       56    11.00       2697.    
  7494 264-61-60       61    60.00       2681.    
  7495 264-66-48       66    48.00       2672.    
  7496 264-71-34       71    34.00       2654.    
  7497 268-1-365        1    365.0       2783.    
 Observation within a steady-state time step has been moved to the end of the time step.
  7498 268-38-7        38    7.000       2681.    
  7499 268-43-47       43    47.00       2665.    
  7500 268-48-335      48    335.0       2686.    
  7501 250-7-274        7    274.0       2785.    
     MULTIPLE LAYERS AND PROPORTIONS :    2, 0.02       3, 0.98
  7502 250-17-5        17    5.000       2760.    
     MULTIPLE LAYERS AND PROPORTIONS :    2, 0.02       3, 0.98
  7503 250-38-7        38    7.000       2695.    
     MULTIPLE LAYERS AND PROPORTIONS :    2, 0.02       3, 0.98
  7504 250-42-355      42    355.0       2675.    
     MULTIPLE LAYERS AND PROPORTIONS :    2, 0.02       3, 0.98
  7505 250-56-11       56    11.00       2696.    
     MULTIPLE LAYERS AND PROPORTIONS :    2, 0.02       3, 0.98
  7506 250-61-60       61    60.00       2679.    
     MULTIPLE LAYERS AND PROPORTIONS :    2, 0.02       3, 0.98
  7507 250-66-48       66    48.00       2666.    
     MULTIPLE LAYERS AND PROPORTIONS :    2, 0.02       3, 0.98
  7508 250-71-34       71    34.00       2638.    
     MULTIPLE LAYERS AND PROPORTIONS :    2, 0.02       3, 0.98
  7509 252-48-335      48    335.0       2702.    
     MULTIPLE LAYERS AND PROPORTIONS :    1, 0.52       2, 0.48
  7510 256-42-355      42    355.0       2668.    
     MULTIPLE LAYERS AND PROPORTIONS :    2, 0.11       3, 0.89
  7511 256-48-335      48    335.0       2696.    
     MULTIPLE LAYERS AND PROPORTIONS :    2, 0.11       3, 0.89
  7512 256-56-11       56    11.00       2694.    
     MULTIPLE LAYERS AND PROPORTIONS :    2, 0.11       3, 0.89
  7513 256-61-60       61    60.00       2678.    
     MULTIPLE LAYERS AND PROPORTIONS :    2, 0.11       3, 0.89
  7514 256-66-48       66    48.00       2664.    
     MULTIPLE LAYERS AND PROPORTIONS :    2, 0.11       3, 0.89
  7515 256-71-34       71    34.00       2646.    
     MULTIPLE LAYERS AND PROPORTIONS :    2, 0.11       3, 0.89
  7516 261-17-5        17    5.000       2756.    
     MULTIPLE LAYERS AND PROPORTIONS :    1, 0.40       2, 0.42       3, 0.18
  7517 261-17-64       17    64.00       2755.    
     MULTIPLE LAYERS AND PROPORTIONS :    1, 0.40       2, 0.42       3, 0.18
  7518 261-22-41       22    41.00       2740.    
     MULTIPLE LAYERS AND PROPORTIONS :    1, 0.40       2, 0.42       3, 0.18
  7519 262-48-338      48    338.0       2688.    
  7520 262-56-9        56    9.000       2670.    
  7521 262-61-62       61    62.00       2657.    
  7522 247-1-365        1    365.0       2801.    
 Observation within a steady-state time step has been moved to the end of the time step.
  7523 247-7-291        7    291.0       2788.    
  7524 247-27-11       27    11.00       2742.    
  7525 266-36-1        36   1.0000       2669.    
  7526 260-48-338      48    338.0       2665.    
  7527 259-56-9        56    9.000       2660.    
  7528 259-61-62       61    62.00       2645.    
  7529 259-66-47       66    47.00       2639.    
  7530 259-71-35       71    35.00       2623.    
  7531 269-38-4        38    4.000       2752.    
  7532 269-42-337      42    337.0       2753.    
  7533 269-48-337      48    337.0       2751.    
  7534 269-56-10       56   10.000       2789.    
  7535 269-61-61       61    61.00       2739.    
  7536 269-66-61       66    61.00       2740.    
  7537 257-56-10       56   10.000       2794.    
  7538 257-61-61       61    61.00       2727.    
  7539 257-66-61       66    61.00       2727.    
  7540 254-38-4        38    4.000       2773.    
  7541 254-42-337      42    337.0       2764.    
  7542 253-48-337      48    337.0       2672.    
     MULTIPLE LAYERS AND PROPORTIONS :    2, 0.03       3, 0.97
  7543 253-56-10       56   10.000       2666.    
     MULTIPLE LAYERS AND PROPORTIONS :    2, 0.03       3, 0.97
  7544 253-61-61       61    61.00       2650.    
     MULTIPLE LAYERS AND PROPORTIONS :    2, 0.03       3, 0.97
  7545 253-66-61       66    61.00       2644.    
     MULTIPLE LAYERS AND PROPORTIONS :    2, 0.03       3, 0.97
  7546 248-38-5        38    5.000       3160.    
  7547 248-42-337      42    337.0       3166.    
  7548 248-48-337      48    337.0       3163.    
  7549 241-48-337      48    337.0       2702.    
  7550 241-56-10       56   10.000       2707.    
  7551 241-61-61       61    61.00       2686.    
  7552 241-66-61       66    61.00       2675.    
  7553 229-48-337      48    337.0       2738.    
  7554 229-56-11       56    11.00       2746.    
  7555 242-38-4        38    4.000       2809.    
  7556 242-42-337      42    337.0       2781.    
  7557 243-56-10       56   10.000       2838.    
  7558 238-56-10       56   10.000       2830.    
  7559 235-56-10       56   10.000       2846.    
  7560 228-38-5        38    5.000       2831.    
  7561 228-42-348      42    348.0       2788.    
  7562 228-48-337      48    337.0       2776.    
  7563 230-48-337      48    337.0       2783.    
     MULTIPLE LAYERS AND PROPORTIONS :    2, 0.19       3, 0.81
  7564 230-56-10       56   10.000       2815.    
     MULTIPLE LAYERS AND PROPORTIONS :    2, 0.19       3, 0.81
  7565 232-31-335      31    335.0       2744.    
     MULTIPLE LAYERS AND PROPORTIONS :    1, 0.11       2, 0.21       3, 0.68
  7566 232-37-361      37    361.0       2729.    
     MULTIPLE LAYERS AND PROPORTIONS :    1, 0.11       2, 0.21       3, 0.68
  7567 232-48-337      48    337.0       2731.    
     MULTIPLE LAYERS AND PROPORTIONS :    2, 0.32       3, 0.68
  7568 232-56-9        56    9.000       2734.    
     MULTIPLE LAYERS AND PROPORTIONS :    2, 0.32       3, 0.68
  7569 232-61-62       61    62.00       2717.    
     MULTIPLE LAYERS AND PROPORTIONS :    2, 0.32       3, 0.68
  7570 232-66-47       66    47.00       2700.    
     MULTIPLE LAYERS AND PROPORTIONS :    2, 0.32       3, 0.68
  7571 232-71-35       71    35.00       2670.    
     MULTIPLE LAYERS AND PROPORTIONS :    2, 0.32       3, 0.68
  7572 237-17-5        17    5.000       2766.    
  7573 237-27-11       27    11.00       2752.    
  7574 237-37-357      37    357.0       2710.    
  7575 237-42-355      42    355.0       2690.    
  7576 237-48-335      48    335.0       2716.    
  7577 237-56-11       56    11.00       2716.    
  7578 237-61-60       61    60.00       2699.    
  7579 237-66-48       66    48.00       2684.    
  7580 237-71-34       71    34.00       2664.    
  7581 239-1-365        1    365.0       2805.    
 Observation within a steady-state time step has been moved to the end of the time step.
     MULTIPLE LAYERS AND PROPORTIONS :    1, 0.69       2, 0.31
  7582 239-42-355      42    355.0       2688.    
     MULTIPLE LAYERS AND PROPORTIONS :    1, 0.69       2, 0.31
  7583 240-22-1        22   1.0000       2744.    
     MULTIPLE LAYERS AND PROPORTIONS :    1, 0.17       2, 0.28       3, 0.55
  7584 240-38-7        38    7.000       2714.    
     MULTIPLE LAYERS AND PROPORTIONS :    1, 0.17       2, 0.28       3, 0.55
  7585 240-48-335      48    335.0       2719.    
     MULTIPLE LAYERS AND PROPORTIONS :    1, 0.17       2, 0.28       3, 0.55
  7586 240-56-10       56   10.000       2718.    
     MULTIPLE LAYERS AND PROPORTIONS :    1, 0.17       2, 0.28       3, 0.55
  7587 240-66-48       66    48.00       2686.    
     MULTIPLE LAYERS AND PROPORTIONS :    1, 0.17       2, 0.28       3, 0.55
  7588 240-71-34       71    34.00       2661.    
     MULTIPLE LAYERS AND PROPORTIONS :    1, 0.17       2, 0.28       3, 0.55
  7589 231-48-335      48    335.0       2732.    
  7590 231-56-10       56   10.000       2732.    
  7591 233-17-5        17    5.000       2781.    
     MULTIPLE LAYERS AND PROPORTIONS :    1, 0.51       2, 0.44       3, 0.05
  7592 233-38-7        38    7.000       2712.    
     MULTIPLE LAYERS AND PROPORTIONS :    1, 0.51       2, 0.44       3, 0.05
  7593 233-42-355      42    355.0       2695.    
     MULTIPLE LAYERS AND PROPORTIONS :    1, 0.51       2, 0.44       3, 0.05
  7594 234-42-355      42    355.0       2694.    
     MULTIPLE LAYERS AND PROPORTIONS :    1, 0.14       2, 0.11       3, 0.75
  7595 234-48-335      48    335.0       2714.    
     MULTIPLE LAYERS AND PROPORTIONS :    1, 0.14       2, 0.11       3, 0.75
  7596 234-56-10       56   10.000       2718.    
     MULTIPLE LAYERS AND PROPORTIONS :    1, 0.14       2, 0.11       3, 0.75
  7597 234-60-322      60    322.0       2701.    
     MULTIPLE LAYERS AND PROPORTIONS :    1, 0.14       2, 0.11       3, 0.75
  7598 234-66-48       66    48.00       2688.    
     MULTIPLE LAYERS AND PROPORTIONS :    1, 0.15       2, 0.10       3, 0.75
  7599 234-71-34       71    34.00       2667.    
     MULTIPLE LAYERS AND PROPORTIONS :    1, 0.15       2, 0.10       3, 0.75
  7600 213-1-310        1    310.0       2835.    
 Observation within a steady-state time step has been moved to the end of the time step.
  7601 213-6-310        6    310.0       2829.    
  7602 213-27-11       27    11.00       2792.    
  7603 213-42-355      42    355.0       2739.    
  7604 216-7-291        7    291.0       2818.    
     MULTIPLE LAYERS AND PROPORTIONS :    1, 0.65       2, 0.35
  7605 216-22-32       22    32.00       2787.    
     MULTIPLE LAYERS AND PROPORTIONS :    1, 0.65       2, 0.35
  7606 216-27-11       27    11.00       2793.    
     MULTIPLE LAYERS AND PROPORTIONS :    1, 0.65       2, 0.35
  7607 216-38-7        38    7.000       2738.    
     MULTIPLE LAYERS AND PROPORTIONS :    1, 0.65       2, 0.35
  7608 216-42-355      42    355.0       2732.    
     MULTIPLE LAYERS AND PROPORTIONS :    1, 0.65       2, 0.35
  7609 210-1-365        1    365.0       2843.    
 Observation within a steady-state time step has been moved to the end of the time step.
  7610 210-38-7        38    7.000       2742.    
  7611 210-42-355      42    355.0       2745.    
  7612 210-48-335      48    335.0       2770.    
  7613 210-56-11       56    11.00       2775.    
  7614 189-17-6        17    6.000       2827.    
     MULTIPLE LAYERS AND PROPORTIONS :    1, 0.75       2, 0.25
  7615 189-22-54       22    54.00       2812.    
     MULTIPLE LAYERS AND PROPORTIONS :    1, 0.75       2, 0.25
  7616 189-27-11       27    11.00       2814.    
     MULTIPLE LAYERS AND PROPORTIONS :    1, 0.75       2, 0.25
  7617 189-38-7        38    7.000       2772.    
     MULTIPLE LAYERS AND PROPORTIONS :    1, 0.75       2, 0.25
  7618 189-42-355      42    355.0       2762.    
     MULTIPLE LAYERS AND PROPORTIONS :    1, 0.75       2, 0.25
  7619 189-48-335      48    335.0       2793.    
     MULTIPLE LAYERS AND PROPORTIONS :    1, 0.75       2, 0.25
  7620 189-56-9        56    9.000       2797.    
     MULTIPLE LAYERS AND PROPORTIONS :    1, 0.75       2, 0.25
  7621 189-61-60       61    60.00       2779.    
     MULTIPLE LAYERS AND PROPORTIONS :    1, 0.75       2, 0.25
  7622 189-66-48       66    48.00       2761.    
     MULTIPLE LAYERS AND PROPORTIONS :    1, 0.75       2, 0.25
  7623 189-71-34       71    34.00       2738.    
     MULTIPLE LAYERS AND PROPORTIONS :    1, 0.75       2, 0.25
  7624 200-38-7        38    7.000       2760.    
     MULTIPLE LAYERS AND PROPORTIONS :    2, 0.18       3, 0.82
  7625 200-42-356      42    356.0       2747.    
     MULTIPLE LAYERS AND PROPORTIONS :    2, 0.18       3, 0.82
  7626 200-48-335      48    335.0       2776.    
     MULTIPLE LAYERS AND PROPORTIONS :    2, 0.18       3, 0.82
  7627 200-56-9        56    9.000       2778.    
     MULTIPLE LAYERS AND PROPORTIONS :    2, 0.18       3, 0.82
  7628 200-61-60       61    60.00       2756.    
     MULTIPLE LAYERS AND PROPORTIONS :    2, 0.18       3, 0.82
  7629 200-66-48       66    48.00       2745.    
     MULTIPLE LAYERS AND PROPORTIONS :    2, 0.18       3, 0.82
  7630 201-38-7        38    7.000       2774.    
     MULTIPLE LAYERS AND PROPORTIONS :    2, 0.10       3, 0.90
  7631 201-42-356      42    356.0       2759.    
     MULTIPLE LAYERS AND PROPORTIONS :    2, 0.08       3, 0.92
  7632 201-48-335      48    335.0       2782.    
     MULTIPLE LAYERS AND PROPORTIONS :    2, 0.08       3, 0.92
  7633 201-56-11       56    11.00       2786.    
     MULTIPLE LAYERS AND PROPORTIONS :    2, 0.08       3, 0.92
  7634 201-61-60       61    60.00       2769.    
     MULTIPLE LAYERS AND PROPORTIONS :    2, 0.08       3, 0.92
  7635 201-66-48       66    48.00       2753.    
     MULTIPLE LAYERS AND PROPORTIONS :    2, 0.08       3, 0.92
  7636 201-71-34       71    34.00       2730.    
     MULTIPLE LAYERS AND PROPORTIONS :    2, 0.08       3, 0.92
  7637 199-17-5        17    5.000       2814.    
  7638 199-22-54       22    54.00       2800.    
  7639 199-27-11       27    11.00       2801.    
  7640 199-38-7        38    7.000       2764.    
  7641 199-42-356      42    356.0       2749.    
  7642 199-48-335      48    335.0       2776.    
  7643 217-38-5        38    5.000       2864.    
  7644 217-42-348      42    348.0       2813.    
  7645 220-38-5        38    5.000       2851.    
     MULTIPLE LAYERS AND PROPORTIONS :    2, 0.13       3, 0.87
  7646 220-42-348      42    348.0       2800.    
     MULTIPLE LAYERS AND PROPORTIONS :    2, 0.13       3, 0.87
  7647 220-56-10       56   10.000       2804.    
     MULTIPLE LAYERS AND PROPORTIONS :    2, 0.13       3, 0.87
  7648 220-61-61       61    61.00       2795.    
     MULTIPLE LAYERS AND PROPORTIONS :    2, 0.13       3, 0.87
  7649 220-66-61       66    61.00       2776.    
     MULTIPLE LAYERS AND PROPORTIONS :    2, 0.13       3, 0.87
  7650 204-38-5        38    5.000       2852.    
  7651 204-42-348      42    348.0       2799.    
  7652 202-38-5        38    5.000       2854.    
     MULTIPLE LAYERS AND PROPORTIONS :    2, 0.17       3, 0.83
  7653 202-42-348      42    348.0       2802.    
     MULTIPLE LAYERS AND PROPORTIONS :    2, 0.17       3, 0.83
  7654 198-39-190      39    190.0       2868.    
     MULTIPLE LAYERS AND PROPORTIONS :    2, 0.25       3, 0.75
  7655 194-39-138      39    138.0       2833.    
     MULTIPLE LAYERS AND PROPORTIONS :    2, 0.39       3, 0.61
  7656 190-56-10       56   10.000       2810.    
  7657 190-61-61       61    61.00       2802.    
  7658 192-38-5        38    5.000       2853.    
  7659 192-42-337      42    337.0       2813.    
  7660 191-39-212      39    212.0       2856.    
     MULTIPLE LAYERS AND PROPORTIONS :    2, 0.28       3, 0.72
  7661 193-38-5        38    5.000       2848.    
     MULTIPLE LAYERS AND PROPORTIONS :    2, 0.09       3, 0.91
  7662 193-42-348      42    348.0       2815.    
     MULTIPLE LAYERS AND PROPORTIONS :    2, 0.09       3, 0.91
  7663 188-56-10       56   10.000       2883.    
  7664 188-61-61       61    61.00       2874.    
  7665 188-66-61       66    61.00       2864.    
  7666 187-56-10       56   10.000       2840.    
  7667 187-61-61       61    61.00       2840.    
  7668 187-66-62       66    62.00       2815.    
  7669 179-48-337      48    337.0       2866.    
  7670 14-1-365         1    365.0       2884.    
 Observation within a steady-state time step has been moved to the end of the time step.
  7671 185-1-365        1    365.0       2853.    
 Observation within a steady-state time step has been moved to the end of the time step.
  7672 185-10-60       10    60.00       2822.    
  7673 185-38-7        38    7.000       2754.    
  7674 185-42-355      42    355.0       2750.    
  7675 181-38-7        38    7.000       2780.    
     MULTIPLE LAYERS AND PROPORTIONS :    2, 0.26       3, 0.74
  7676 181-48-335      48    335.0       2809.    
     MULTIPLE LAYERS AND PROPORTIONS :    2, 0.26       3, 0.74
  7677 181-56-11       56    11.00       2813.    
     MULTIPLE LAYERS AND PROPORTIONS :    2, 0.26       3, 0.74
  7678 181-61-60       61    60.00       2798.    
     MULTIPLE LAYERS AND PROPORTIONS :    2, 0.26       3, 0.74
  7679 181-66-48       66    48.00       2777.    
     MULTIPLE LAYERS AND PROPORTIONS :    2, 0.26       3, 0.74
  7680 181-71-34       71    34.00       2755.    
     MULTIPLE LAYERS AND PROPORTIONS :    2, 0.26       3, 0.74
  7681 186-48-335      48    335.0       2805.    
  7682 183-48-335      48    335.0       2811.    
  7683 182-42-355      42    355.0       2777.    
     MULTIPLE LAYERS AND PROPORTIONS :    2, 0.27       3, 0.73
  7684 182-48-335      48    335.0       2810.    
     MULTIPLE LAYERS AND PROPORTIONS :    2, 0.27       3, 0.73
  7685 182-56-9        56    9.000       2809.    
     MULTIPLE LAYERS AND PROPORTIONS :    2, 0.27       3, 0.73
  7686 182-61-60       61    60.00       2795.    
     MULTIPLE LAYERS AND PROPORTIONS :    2, 0.27       3, 0.73
  7687 182-66-48       66    48.00       2776.    
     MULTIPLE LAYERS AND PROPORTIONS :    2, 0.27       3, 0.73
  7688 182-71-34       71    34.00       2755.    
     MULTIPLE LAYERS AND PROPORTIONS :    2, 0.27       3, 0.73
  7689 180-48-335      48    335.0       2822.    
  7690 184-12-80       12    80.00       2841.    
  7691 184-17-60       17    60.00       2837.    
  7692 184-22-62       22    62.00       2827.    
  7693 184-27-6        27    6.000       2812.    
  7694 184-31-335      31    335.0       2811.    
  7695 184-37-32       37    32.00       2792.    
  7696 184-42-299      42    299.0       2779.    
  7697 184-48-337      48    337.0       2809.    
  7698 184-56-12       56    12.00       2811.    
  7699 184-66-55       66    55.00       2790.    
  7700 305-56-11       56    11.00       2722.    
  7701 305-61-61       61    61.00       2678.    
  7702 305-66-32       66    32.00       2682.    
  7703 325-37-344      37    344.0       2646.    
  7704 325-43-14       43    14.00       2634.    
  7705 325-48-342      48    342.0       2649.    
  7706 325-56-12       56    12.00       2656.    
  7707 325-61-61       61    61.00       2621.    
  7708 325-66-31       66    31.00       2611.    
  7709 292-61-61       61    61.00       2675.    
  7710 296-26-321      26    321.0       2728.    
  7711 296-31-335      31    335.0       2715.    
  7712 296-37-344      37    344.0       2709.    
  7713 296-43-14       43    14.00       2705.    
  7714 296-48-342      48    342.0       2701.    
  7715 296-56-11       56    11.00       2697.    
  7716 296-60-321      60    321.0       2692.    
  7717 296-65-300      65    300.0       2686.    
     MULTIPLE LAYERS AND PROPORTIONS :    1, 0.20       2, 0.80
  7718 297-17-4        17    4.000       2731.    
     MULTIPLE LAYERS AND PROPORTIONS :    1, 0.20       2, 0.80
  7719 297-22-54       22    54.00       2722.    
     MULTIPLE LAYERS AND PROPORTIONS :    1, 0.20       2, 0.80
  7720 297-27-11       27    11.00       2713.    
     MULTIPLE LAYERS AND PROPORTIONS :    1, 0.20       2, 0.80
  7721 297-56-12       56    12.00       2681.    
  7722 297-61-61       61    61.00       2671.    
  7723 297-66-32       66    32.00       2665.    
  7724 272-33-177      33    177.0       2743.    
  7725 245-48-342      48    342.0       2722.    
  7726 245-56-12       56    12.00       2719.    
  7727 221-33-346      33    346.0       2759.    
     MULTIPLE LAYERS AND PROPORTIONS :    1, 0.25       2, 0.75
  7728 222-48-343      48    343.0       2744.    
  7729 222-56-9        56    9.000       2758.    
  7730 222-61-60       61    60.00       2739.    
  7731 222-66-54       66    54.00       2735.    
  7732 222-71-34       71    34.00       2721.    
  7733 223-48-343      48    343.0       2746.    
     MULTIPLE LAYERS AND PROPORTIONS :    2, 0.87       3, 0.13
  7734 223-56-9        56    9.000       2750.    
     MULTIPLE LAYERS AND PROPORTIONS :    2, 0.87       3, 0.13
  7735 223-61-60       61    60.00       2738.    
     MULTIPLE LAYERS AND PROPORTIONS :    2, 0.87       3, 0.13
  7736 223-71-35       71    35.00       2720.    
     MULTIPLE LAYERS AND PROPORTIONS :    2, 0.87       3, 0.13
  7737 219-71-365      71    365.0       2723.    
  7738 102-43-8        43    8.000       2972.    
  7739 102-48-344      48    344.0       2995.    
  7740 92-71-40        71    40.00       2989.    
  7741 177-17-6        17    6.000       2858.    
  7742 177-38-7        38    7.000       2790.    
  7743 177-42-355      42    355.0       2803.    
  7744 177-48-335      48    335.0       2861.    
  7745 169-38-4        38    4.000       2773.    
     MULTIPLE LAYERS AND PROPORTIONS :    1, 0.24       2, 0.32       3, 0.44
  7746 169-42-334      42    334.0       2779.    
     MULTIPLE LAYERS AND PROPORTIONS :    1, 0.24       2, 0.32       3, 0.44
  7747 169-56-11       56    11.00       2818.    
     MULTIPLE LAYERS AND PROPORTIONS :    1, 0.24       2, 0.32       3, 0.44
  7748 168-1-365        1    365.0       2887.    
 Observation within a steady-state time step has been moved to the end of the time step.
     MULTIPLE LAYERS AND PROPORTIONS :    1, 0.82       2, 0.18
  7749 170-38-7        38    7.000       2782.    
  7750 170-42-355      42    355.0       2793.    
     MULTIPLE LAYERS AND PROPORTIONS :    1, 0.07       2, 0.10       3, 0.83
  7751 170-48-335      48    335.0       2831.    
     MULTIPLE LAYERS AND PROPORTIONS :    1, 0.07       2, 0.10       3, 0.83
  7752 170-56-9        56    9.000       2827.    
     MULTIPLE LAYERS AND PROPORTIONS :    1, 0.07       2, 0.10       3, 0.83
  7753 170-61-60       61    60.00       2821.    
     MULTIPLE LAYERS AND PROPORTIONS :    1, 0.07       2, 0.10       3, 0.83
  7754 170-66-48       66    48.00       2798.    
     MULTIPLE LAYERS AND PROPORTIONS :    1, 0.07       2, 0.10       3, 0.83
  7755 170-71-34       71    34.00       2780.    
  7756 176-1-280        1    280.0       2880.    
 Observation within a steady-state time step has been moved to the end of the time step.
     MULTIPLE LAYERS AND PROPORTIONS :    1, 0.77       2, 0.23
  7757 176-6-340        6    340.0       2875.    
     MULTIPLE LAYERS AND PROPORTIONS :    1, 0.77       2, 0.23
  7758 176-11-333      11    333.0       2858.    
     MULTIPLE LAYERS AND PROPORTIONS :    1, 0.77       2, 0.23
  7759 176-16-332      16    332.0       2862.    
     MULTIPLE LAYERS AND PROPORTIONS :    1, 0.77       2, 0.23
  7760 176-38-7        38    7.000       2791.    
     MULTIPLE LAYERS AND PROPORTIONS :    1, 0.77       2, 0.23
  7761 172-12-80       12    80.00       2883.    
  7762 172-17-60       17    60.00       2875.    
  7763 172-22-62       22    62.00       2868.    
  7764 172-27-6        27    6.000       2860.    
  7765 172-31-344      31    344.0       2859.    
  7766 172-36-335      36    335.0       2848.    
  7767 172-48-335      48    335.0       2848.    
  7768 172-56-11       56    11.00       2853.    
  7769 172-61-59       61    59.00       2852.    
  7770 171-43-47       43    47.00       2829.    
  7771 171-48-335      48    335.0       2851.    
  7772 171-56-11       56    11.00       2853.    
  7773 171-60-322      60    322.0       2853.    
  7774 171-65-298      65    298.0       2837.    
  7775 171-71-13       71    13.00       2807.    
  7776 164-33-152      33    152.0       2848.    
     MULTIPLE LAYERS AND PROPORTIONS :    1, 0.12       2, 0.88
  7777 167-48-335      48    335.0       2864.    
  7778 167-56-11       56    11.00       2866.    
  7779 166-61-56       61    56.00       2871.    
  7780 166-66-53       66    53.00       2858.    
  7781 166-71-35       71    35.00       2829.    
  7782 178-48-336      48    336.0       2871.    
  7783 178-56-11       56    11.00       2816.    
  7784 174-48-336      48    336.0       2870.    
  7785 161-48-336      48    336.0       2887.    
  7786 161-56-11       56    11.00       2895.    
  7787 161-61-56       61    56.00       2887.    
  7788 161-66-54       66    54.00       2878.    
  7789 161-71-41       71    41.00       2860.    
  7790 153-48-335      48    335.0       2915.    
  7791 163-48-336      48    336.0       2902.    
  7792 163-56-11       56    11.00       2903.    
  7793 163-61-59       61    59.00       2896.    
  7794 163-66-54       66    54.00       2886.    
  7795 163-71-41       71    41.00       2865.    
  7796 156-48-336      48    336.0       2913.    
  7797 156-56-11       56    11.00       2916.    
  7798 157-1-358        1    358.0       2927.    
 Observation within a steady-state time step has been moved to the end of the time step.
  7799 157-22-54       22    54.00       2887.    
  7800 157-27-11       27    11.00       2885.    
  7801 157-31-348      31    348.0       2874.    
  7802 157-37-22       37    22.00       2831.    
  7803 157-43-47       43    47.00       2842.    
  7804 157-48-335      48    335.0       2888.    
  7805 157-56-9        56    9.000       2903.    
  7806 157-60-322      60    322.0       2872.    
  7807 157-65-298      65    298.0       2859.    
  7808 157-71-365      71    365.0       2824.    
  7809 154-42-341      42    341.0       2833.    
  7810 159-38-4        38    4.000       2783.    
     MULTIPLE LAYERS AND PROPORTIONS :    1, 0.15       2, 0.36       3, 0.49
  7811 159-56-11       56    11.00       2840.    
     MULTIPLE LAYERS AND PROPORTIONS :    1, 0.15       2, 0.36       3, 0.49
  7812 147-38-4        38    4.000       2820.    
     MULTIPLE LAYERS AND PROPORTIONS :    1, 0.22       2, 0.26       3, 0.52
  7813 147-42-334      42    334.0       2820.    
     MULTIPLE LAYERS AND PROPORTIONS :    1, 0.22       2, 0.26       3, 0.52
  7814 147-56-11       56    11.00       2889.    
     MULTIPLE LAYERS AND PROPORTIONS :    1, 0.22       2, 0.26       3, 0.52
  7815 149-1-280        1    280.0       2945.    
 Observation within a steady-state time step has been moved to the end of the time step.
  7816 150-48-335      48    335.0       2923.    
  7817 150-56-9        56    9.000       2926.    
  7818 137-48-335      48    335.0       2944.    
  7819 137-56-9        56    9.000       2949.    
  7820 137-61-56       61    56.00       2937.    
  7821 137-66-53       66    53.00       2922.    
  7822 136-38-4        38    4.000       2860.    
     MULTIPLE LAYERS AND PROPORTIONS :    2, 0.22       3, 0.78
  7823 136-42-341      42    341.0       2880.    
     MULTIPLE LAYERS AND PROPORTIONS :    2, 0.22       3, 0.78
  7824 136-56-11       56    11.00       2894.    
     MULTIPLE LAYERS AND PROPORTIONS :    2, 0.22       3, 0.78
  7825 152-48-336      48    336.0       2949.    
  7826 129-17-5        17    5.000       2953.    
  7827 129-27-11       27    11.00       2944.    
  7828 123-42-348      42    348.0       2909.    
     MULTIPLE LAYERS AND PROPORTIONS :    2, 0.26       3, 0.74
  7829 128-42-348      42    348.0       2921.    
  7830 128-56-11       56    11.00       2970.    
  7831 133-12-362      12    362.0       2936.    
  7832 133-17-61       17    61.00       2933.    
  7833 133-27-6        27    6.000       2925.    
  7834 133-31-335      31    335.0       2913.    
  7835 133-38-4        38    4.000       2866.    
  7836 133-42-341      42    341.0       2885.    
  7837 133-48-335      48    335.0       2937.    
  7838 133-56-9        56    9.000       2956.    
  7839 133-71-365      71    365.0       2871.    
  7840 127-1-365        1    365.0       2959.    
 Observation within a steady-state time step has been moved to the end of the time step.
  7841 127-17-1        17   1.0000       2959.    
  7842 130-42-341      42    341.0       2915.    
     MULTIPLE LAYERS AND PROPORTIONS :    2, 0.39       3, 0.61
  7843 130-48-335      48    335.0       2949.    
     MULTIPLE LAYERS AND PROPORTIONS :    2, 0.39       3, 0.61
  7844 130-56-9        56    9.000       2964.    
     MULTIPLE LAYERS AND PROPORTIONS :    2, 0.39       3, 0.61
  7845 126-27-11       27    11.00       2934.    
  7846 135-48-336      48    336.0       2897.    
  7847 135-56-9        56    9.000       2902.    
  7848 122-48-336      48    336.0       2920.    
  7849 120-12-310      12    310.0       2972.    
  7850 120-17-5        17    5.000       2968.    
  7851 120-27-6        27    6.000       2963.    
  7852 120-31-335      31    335.0       2964.    
  7853 120-37-32       37    32.00       2931.    
  7854 120-42-341      42    341.0       2947.    
  7855 120-48-336      48    336.0       2976.    
  7856 120-56-10       56   10.000       2983.    
  7857 120-61-59       61    59.00       2968.    
  7858 120-65-292      65    292.0       2963.    
  7859 120-71-365      71    365.0       2938.    
  7860 118-38-4        38    4.000       2903.    
     MULTIPLE LAYERS AND PROPORTIONS :    2, 0.23       3, 0.77
  7861 118-42-341      42    341.0       2933.    
     MULTIPLE LAYERS AND PROPORTIONS :    2, 0.22       3, 0.78
  7862 118-48-349      48    349.0       2960.    
     MULTIPLE LAYERS AND PROPORTIONS :    2, 0.22       3, 0.78
  7863 118-56-10       56   10.000       2964.    
     MULTIPLE LAYERS AND PROPORTIONS :    2, 0.22       3, 0.78
  7864 107-27-69       27    69.00       2989.    
  7865 114-48-336      48    336.0       2957.    
     MULTIPLE LAYERS AND PROPORTIONS :    1, 0.29       2, 0.43       3, 0.28
  7866 114-56-10       56   10.000       2966.    
     MULTIPLE LAYERS AND PROPORTIONS :    1, 0.29       2, 0.43       3, 0.28
  7867 112-43-8        43    8.000       2956.    
  7868 112-48-335      48    335.0       2982.    
  7869 112-56-9        56    9.000       2988.    
  7870 112-61-52       61    52.00       2975.    
  7871 112-66-45       66    45.00       2967.    
  7872 112-71-13       71    13.00       2956.    
  7873 104-60-299      60    299.0       2981.    
  7874 104-65-292      65    292.0       2974.    
  7875 100-22-61       22    61.00       2977.    
  7876 101-61-53       61    53.00       2981.    
  7877 97-22-54        22    54.00       2975.    
  7878 97-27-10        27   10.000       2963.    
  7879 98-43-8         43    8.000       2975.    
  7880 98-48-348       48    348.0       3003.    
  7881 98-56-10        56   10.000       3007.    
  7882 98-61-52        61    52.00       2997.    
  7883 98-66-45        66    45.00       2989.    
  7884 105-43-69       43    69.00       2982.    
  7885 105-48-348      48    348.0       2993.    
  7886 105-56-10       56   10.000       3005.    
  7887 105-61-55       61    55.00       2989.    
  7888 105-66-45       66    45.00       2983.    
  7889 99-5-1           5   1.0000       2994.    
  7890 106-56-10       56   10.000       2952.    
  7891 106-61-59       61    59.00       2947.    
  7892 106-66-45       66    45.00       2941.    
  7893 106-71-40       71    40.00       2928.    
  7894 95-71-40        71    40.00       2970.    
  7895 3393-25-338     25    338.0       1492.    
  7896 3312-25-338     25    338.0       1558.    
  7897 3288-25-341     25    341.0       1610.    
  7898 3282-25-341     25    341.0       1611.    
  7899 3259-25-341     25    341.0       1649.    
     MULTIPLE LAYERS AND PROPORTIONS :    2, 0.69       3, 0.31
  7900 3222-25-229     25    229.0       1675.    
  7901 3213-25-337     25    337.0       1690.    
  7902 3199-25-339     25    339.0       1687.    
     MULTIPLE LAYERS AND PROPORTIONS :    2, 0.82       3, 0.18
  7903 3175-25-339     25    339.0       1683.    
  7904 3170-25-342     25    342.0       1701.    
  7905 3200-25-336     25    336.0       1748.    
     MULTIPLE LAYERS AND PROPORTIONS :    2, 0.43       3, 0.57
  7906 3154-25-336     25    336.0       1687.    
  7907 3138-25-336     25    336.0       1690.    
  7908 3046-25-344     25    344.0       1693.    
  7909 3036-25-344     25    344.0       1702.    
  7910 3038-25-339     25    339.0       1713.    
     MULTIPLE LAYERS AND PROPORTIONS :    1, 0.19       2, 0.77       3, 0.04
  7911 2684-25-3       25    3.000       1753.    
  7912 2919-25-351     25    351.0       1795.    
  7913 2719-25-113     25    113.0       2216.    
  7914 1933-25-180     25    180.0       2246.    
     MULTIPLE LAYERS AND PROPORTIONS :    1, 0.55       2, 0.45
  7915 1387-25-60      25    60.00       2343.    
     MULTIPLE LAYERS AND PROPORTIONS :    2, 0.46       3, 0.54
  7916 1427-25-27      25    27.00       2341.    
  7917 1661-25-60      25    60.00       2359.    
  7918 1390-25-365     25    365.0       2362.    
     MULTIPLE LAYERS AND PROPORTIONS :    1, 0.42       2, 0.58
  7919 1904-25-317     25    317.0       2511.    
  7920 1379-25-91      25    91.00       2552.    
  7921 1796-25-321     25    321.0       2637.    
  7922 1753-25-321     25    321.0       2623.    
  7923 1705-25-328     25    328.0       2647.    
  7924 1064-25-125     25    125.0       2385.    
     MULTIPLE LAYERS AND PROPORTIONS :    2, 0.31       3, 0.69
  7925 831-25-335      25    335.0       2495.    
     MULTIPLE LAYERS AND PROPORTIONS :    1, 0.45       2, 0.55
  7926 1066-25-335     25    335.0       2783.    
  7927 723-25-363      25    363.0       2420.    
  7928 568-25-307      25    307.0       2578.    
     MULTIPLE LAYERS AND PROPORTIONS :    1, 0.68       2, 0.32
  7929 544-25-309      25    309.0       2569.    
  7930 780-25-329      25    329.0       2673.    
  7931 526-25-307      25    307.0       2566.    
  7932 370-25-308      25    308.0       2652.    
     MULTIPLE LAYERS AND PROPORTIONS :    1, 0.90       2, 0.10
  7933 265-25-7        25    7.000       2718.    
     MULTIPLE LAYERS AND PROPORTIONS :    2, 0.13       3, 0.87
  7934 266-25-43       25    43.00       2692.    
  7935 232-25-314      25    314.0       2758.    
     MULTIPLE LAYERS AND PROPORTIONS :    1, 0.11       2, 0.21       3, 0.68
  7936 100-25-316      25    316.0       2977.    
  7937 3205-26-8       26    8.000       1660.    
  7938 3174-26-7       26    7.000       1673.    
  7939 3163-26-13      26    13.00       1681.    
  7940 3100-26-12      26    12.00       1686.    
     MULTIPLE LAYERS AND PROPORTIONS :    2, 0.76       3, 0.24
  7941 3097-26-7       26    7.000       1674.    
  7942 3096-26-12      26    12.00       1693.    
  7943 3053-26-11      26    11.00       1688.    
  7944 3065-26-12      26    12.00       1701.    
     MULTIPLE LAYERS AND PROPORTIONS :    2, 0.27       3, 0.73
  7945 3033-26-11      26    11.00       1699.    
     MULTIPLE LAYERS AND PROPORTIONS :    2, 0.22       3, 0.78
  7946 2989-26-12      26    12.00       1709.    
  7947 3083-26-152     26    152.0       1700.    
     MULTIPLE LAYERS AND PROPORTIONS :    2, 0.60       3, 0.40
  7948 3040-26-13      26    13.00       1692.    
  7949 2997-26-123     26    123.0       2239.    
  7950 3016-26-123     26    123.0       2282.    
  7951 2953-26-14      26    14.00       1718.    
  7952 2963-26-14      26    14.00       1715.    
  7953 2968-26-13      26    13.00       1779.    
     MULTIPLE LAYERS AND PROPORTIONS :    2, 0.99       3, 0.01
  7954 2906-26-13      26    13.00       1755.    
     MULTIPLE LAYERS AND PROPORTIONS :    2, 0.77       3, 0.23
  7955 2905-26-13      26    13.00       1726.    
     MULTIPLE LAYERS AND PROPORTIONS :    1, 0.55       2, 0.45
  7956 2874-26-14      26    14.00       1767.    
  7957 2780-26-13      26    13.00       1747.    
  7958 2779-26-13      26    13.00       1763.    
     MULTIPLE LAYERS AND PROPORTIONS :    2, 0.37       3, 0.63
  7959 2787-26-14      26    14.00       1788.    
  7960 2790-26-14      26    14.00       1786.    
     MULTIPLE LAYERS AND PROPORTIONS :    2, 0.52       3, 0.48
  7961 2772-26-13      26    13.00       1750.    
  7962 2639-26-13      26    13.00       1780.    
     MULTIPLE LAYERS AND PROPORTIONS :    2, 0.39       3, 0.61
  7963 2974-26-15      26    15.00       1784.    
  7964 2937-26-14      26    14.00       1785.    
     MULTIPLE LAYERS AND PROPORTIONS :    2, 0.86       3, 0.14
  7965 2885-26-14      26    14.00       1764.    
  7966 2867-26-14      26    14.00       1706.    
  7967 2837-26-14      26    14.00       1710.    
  7968 2748-26-15      26    15.00       1763.    
  7969 2694-26-15      26    15.00       1833.    
  7970 2933-26-15      26    15.00       1711.    
  7971 2851-26-14      26    14.00       1742.    
  7972 2711-26-15      26    15.00       1803.    
  7973 2928-26-18      26    18.00       1795.    
  7974 2811-26-14      26    14.00       1815.    
  7975 2808-26-18      26    18.00       1802.    
  7976 2766-26-47      26    47.00       2059.    
  7977 2789-26-18      26    18.00       1813.    
  7978 2696-26-18      26    18.00       2033.    
  7979 2977-26-123     26    123.0       2364.    
     MULTIPLE LAYERS AND PROPORTIONS :    2, 0.89       3, 0.11
  7980 2914-26-120     26    120.0       2139.    
  7981 2930-26-123     26    123.0       2338.    
  7982 2898-26-120     26    120.0       2134.    
  7983 2841-26-120     26    120.0       2191.    
  7984 2774-26-120     26    120.0       2200.    
  7985 2762-26-26      26    26.00       2162.    
  7986 2733-26-1       26   1.0000       2092.    
  7987 2742-26-26      26    26.00       2135.    
  7988 2670-26-18      26    18.00       2129.    
  7989 2660-26-120     26    120.0       2188.    
  7990 2931-26-22      26    22.00       2410.    
  7991 2595-26-12      26    12.00       1779.    
     MULTIPLE LAYERS AND PROPORTIONS :    2, 0.19       3, 0.81
  7992 2596-26-1       26   1.0000       1776.    
     MULTIPLE LAYERS AND PROPORTIONS :    2, 0.12       3, 0.88
  7993 2589-26-11      26    11.00       1776.    
  7994 2588-26-1       26   1.0000       1774.    
  7995 2564-26-12      26    12.00       1779.    
  7996 2529-26-12      26    12.00       1789.    
     MULTIPLE LAYERS AND PROPORTIONS :    2, 0.05       3, 0.95
  7997 2449-26-11      26    11.00       1828.    
  7998 2492-26-13      26    13.00       1813.    
     MULTIPLE LAYERS AND PROPORTIONS :    2, 0.26       3, 0.74
  7999 2452-26-12      26    12.00       1795.    
     MULTIPLE LAYERS AND PROPORTIONS :    2, 0.09       3, 0.91
  8000 2303-26-1       26   1.0000       1795.    
     MULTIPLE LAYERS AND PROPORTIONS :    2, 0.07       3, 0.93
  8001 2296-26-12      26    12.00       1805.    
     MULTIPLE LAYERS AND PROPORTIONS :    2, 0.10       3, 0.90
  8002 2301-26-14      26    14.00       1821.    
     MULTIPLE LAYERS AND PROPORTIONS :    2, 0.27       3, 0.73
  8003 2300-26-11      26    11.00       1839.    
     MULTIPLE LAYERS AND PROPORTIONS :    2, 0.44       3, 0.56
  8004 2220-26-11      26    11.00       1844.    
     MULTIPLE LAYERS AND PROPORTIONS :    2, 0.13       3, 0.87
  8005 2089-26-1       26   1.0000       1825.    
     MULTIPLE LAYERS AND PROPORTIONS :    2, 0.14       3, 0.86
  8006 2088-26-12      26    12.00       1831.    
     MULTIPLE LAYERS AND PROPORTIONS :    2, 0.17       3, 0.83
  8007 2448-26-11      26    11.00       1837.    
  8008 2099-26-1       26   1.0000       1851.    
     MULTIPLE LAYERS AND PROPORTIONS :    2, 0.43       3, 0.57
  8009 1922-26-1       26   1.0000       1870.    
     MULTIPLE LAYERS AND PROPORTIONS :    2, 0.39       3, 0.61
  8010 1983-26-11      26    11.00       1883.    
  8011 1930-26-14      26    14.00       1888.    
  8012 2649-26-27      26    27.00       2098.    
     MULTIPLE LAYERS AND PROPORTIONS :    1, 0.55       2, 0.45
  8013 2505-26-32      26    32.00       2152.    
  8014 2464-26-29      26    29.00       2151.    
  8015 2388-26-32      26    32.00       2173.    
  8016 2412-26-20      26    20.00       2232.    
     MULTIPLE LAYERS AND PROPORTIONS :    1, 0.97       2, 0.03
  8017 2289-26-29      26    29.00       2181.    
  8018 2236-26-19      26    19.00       2195.    
  8019 2183-26-29      26    29.00       2163.    
  8020 2215-26-104     26    104.0       2435.    
  8021 2162-26-102     26    102.0       2323.    
  8022 2130-26-69      26    69.00       2258.    
  8023 1990-26-67      26    67.00       2274.    
  8024 2103-26-67      26    67.00       2293.    
     MULTIPLE LAYERS AND PROPORTIONS :    1, 0.64       2, 0.36
  8025 2055-26-102     26    102.0       2292.    
  8026 1997-26-183     26    183.0       2331.    
  8027 2339-26-104     26    104.0       2473.    
  8028 2100-26-117     26    117.0       2518.    
  8029 2010-26-75      26    75.00       2379.    
  8030 1428-26-1       26   1.0000       1959.    
  8031 1383-26-8       26    8.000       2004.    
  8032 1819-26-1       26   1.0000       1912.    
     MULTIPLE LAYERS AND PROPORTIONS :    2, 0.69       3, 0.31
  8033 1748-26-11      26    11.00       1915.    
     MULTIPLE LAYERS AND PROPORTIONS :    2, 0.51       3, 0.49
  8034 1702-26-11      26    11.00       1892.    
     MULTIPLE LAYERS AND PROPORTIONS :    2, 0.37       3, 0.63
  8035 1710-26-1       26   1.0000       1884.    
     MULTIPLE LAYERS AND PROPORTIONS :    2, 0.18       3, 0.82
  8036 1663-26-1       26   1.0000       1894.    
     MULTIPLE LAYERS AND PROPORTIONS :    2, 0.25       3, 0.75
  8037 1612-26-11      26    11.00       1921.    
  8038 1407-26-11      26    11.00       1992.    
     MULTIPLE LAYERS AND PROPORTIONS :    2, 0.83       3, 0.17
  8039 1364-26-11      26    11.00       1996.    
  8040 1266-26-8       26    8.000       2015.    
     MULTIPLE LAYERS AND PROPORTIONS :    2, 0.57       3, 0.43
  8041 1336-26-11      26    11.00       2008.    
     MULTIPLE LAYERS AND PROPORTIONS :    2, 0.82       3, 0.18
  8042 1337-26-11      26    11.00       2002.    
     MULTIPLE LAYERS AND PROPORTIONS :    2, 0.78       3, 0.22
  8043 1264-26-1       26   1.0000       2006.    
     MULTIPLE LAYERS AND PROPORTIONS :    2, 0.41       3, 0.59
  8044 1849-26-40      26    40.00       2254.    
     MULTIPLE LAYERS AND PROPORTIONS :    1, 0.73       2, 0.27
  8045 1832-26-40      26    40.00       2225.    
  8046 1690-26-33      26    33.00       2246.    
  8047 1691-26-1       26   1.0000       2240.    
  8048 1417-26-60      26    60.00       2352.    
  8049 1386-26-34      26    34.00       2348.    
     MULTIPLE LAYERS AND PROPORTIONS :    1, 0.37       2, 0.49       3, 0.14
  8050 1329-26-35      26    35.00       2350.    
  8051 1278-26-33      26    33.00       2365.    
  8052 1879-26-69      26    69.00       2338.    
     MULTIPLE LAYERS AND PROPORTIONS :    1, 0.20       2, 0.80
  8053 1811-26-68      26    68.00       2332.    
     MULTIPLE LAYERS AND PROPORTIONS :    1, 0.33       2, 0.67
  8054 1837-26-60      26    60.00       2337.    
  8055 1907-26-68      26    68.00       2328.    
  8056 1888-26-68      26    68.00       2311.    
  8057 1779-26-67      26    67.00       2313.    
  8058 1619-26-67      26    67.00       2340.    
     MULTIPLE LAYERS AND PROPORTIONS :    1, 0.59       2, 0.41
  8059 1723-26-60      26    60.00       2306.    
  8060 1694-26-68      26    68.00       2322.    
     MULTIPLE LAYERS AND PROPORTIONS :    1, 0.79       2, 0.21
  8061 1658-26-67      26    67.00       2325.    
     MULTIPLE LAYERS AND PROPORTIONS :    1, 0.83       2, 0.17
  8062 1655-26-69      26    69.00       2339.    
     MULTIPLE LAYERS AND PROPORTIONS :    1, 0.98       2, 0.02
  8063 1614-26-69      26    69.00       2341.    
  8064 1596-26-69      26    69.00       2343.    
  8065 1630-26-69      26    69.00       2351.    
  8066 1552-26-74      26    74.00       2343.    
  8067 1467-26-76      26    76.00       2341.    
  8068 1470-26-74      26    74.00       2328.    
  8069 1455-26-81      26    81.00       2338.    
  8070 1443-26-81      26    81.00       2342.    
  8071 1465-26-74      26    74.00       2337.    
  8072 1440-26-74      26    74.00       2343.    
     MULTIPLE LAYERS AND PROPORTIONS :    1, 0.14       2, 0.86
  8073 1474-26-75      26    75.00       2350.    
  8074 1453-26-71      26    71.00       2351.    
  8075 1488-26-70      26    70.00       2350.    
  8076 1502-26-71      26    71.00       2352.    
     MULTIPLE LAYERS AND PROPORTIONS :    1, 0.40       2, 0.60
  8077 1477-26-60      26    60.00       2354.    
  8078 1458-26-153     26    153.0       2351.    
  8079 1429-26-71      26    71.00       2371.    
     MULTIPLE LAYERS AND PROPORTIONS :    1, 0.19       2, 0.81
  8080 1397-26-71      26    71.00       2361.    
     MULTIPLE LAYERS AND PROPORTIONS :    1, 0.60       2, 0.40
  8081 1416-26-76      26    76.00       2364.    
     MULTIPLE LAYERS AND PROPORTIONS :    1, 0.72       2, 0.28
  8082 1312-26-88      26    88.00       2410.    
  8083 1359-26-82      26    82.00       2387.    
     MULTIPLE LAYERS AND PROPORTIONS :    1, 0.54       2, 0.46
  8084 1333-26-82      26    82.00       2391.    
     MULTIPLE LAYERS AND PROPORTIONS :    1, 0.51       2, 0.49
  8085 1295-26-84      26    84.00       2407.    
  8086 1892-26-193     26    193.0       2511.    
     MULTIPLE LAYERS AND PROPORTIONS :    1, 0.30       2, 0.70
  8087 1940-26-109     26    109.0       2485.    
     MULTIPLE LAYERS AND PROPORTIONS :    1, 0.24       2, 0.76
  8088 1659-26-71      26    71.00       2364.    
     MULTIPLE LAYERS AND PROPORTIONS :    1, 0.55       2, 0.45
  8089 1671-26-60      26    60.00       2365.    
     MULTIPLE LAYERS AND PROPORTIONS :    1, 0.72       2, 0.28
  8090 1627-26-70      26    70.00       2374.    
  8091 1677-26-83      26    83.00       2490.    
  8092 1602-26-83      26    83.00       2397.    
  8093 1604-26-83      26    83.00       2484.    
  8094 1669-26-109     26    109.0       2529.    
  8095 1622-26-109     26    109.0       2528.    
  8096 1553-26-88      26    88.00       2529.    
  8097 1563-26-88      26    88.00       2526.    
  8098 1586-26-84      26    84.00       2483.    
  8099 1507-26-75      26    75.00       2376.    
  8100 1495-26-60      26    60.00       2377.    
     MULTIPLE LAYERS AND PROPORTIONS :    1, 0.18       2, 0.82
  8101 1484-26-75      26    75.00       2370.    
  8102 1489-26-88      26    88.00       2488.    
  8103 1464-26-88      26    88.00       2529.    
  8104 1414-26-95      26    95.00       2547.    
  8105 1395-26-88      26    88.00       2457.    
  8106 1377-26-83      26    83.00       2461.    
  8107 1375-26-88      26    88.00       2509.    
  8108 1396-26-70      26    70.00       2427.    
  8109 1415-26-84      26    84.00       2403.    
  8110 1300-26-213     26    213.0       2560.    
  8111 1276-26-95      26    95.00       2557.    
  8112 1354-26-95      26    95.00       2713.    
  8113 1358-26-95      26    95.00       2714.    
  8114 846-26-13       26    13.00       2358.    
  8115 833-26-13       26    13.00       2354.    
     MULTIPLE LAYERS AND PROPORTIONS :    2, 0.17       3, 0.83
  8116 827-26-13       26    13.00       2353.    
     MULTIPLE LAYERS AND PROPORTIONS :    2, 0.60       3, 0.40
  8117 845-26-13       26    13.00       2306.    
  8118 1105-26-118     26    118.0       2038.    
  8119 1120-26-13      26    13.00       2034.    
  8120 1088-26-91      26    91.00       2090.    
  8121 809-26-13       26    13.00       2198.    
  8122 1235-26-36      26    36.00       2364.    
     MULTIPLE LAYERS AND PROPORTIONS :    2, 0.35       3, 0.65
  8123 1239-26-33      26    33.00       2364.    
     MULTIPLE LAYERS AND PROPORTIONS :    1, 0.16       2, 0.58       3, 0.26
  8124 1227-26-33      26    33.00       2367.    
     MULTIPLE LAYERS AND PROPORTIONS :    2, 0.25       3, 0.75
  8125 1219-26-36      26    36.00       2358.    
     MULTIPLE LAYERS AND PROPORTIONS :    1, 0.29       2, 0.09       3, 0.62
  8126 1168-26-35      26    35.00       2377.    
  8127 1140-26-35      26    35.00       2383.    
     MULTIPLE LAYERS AND PROPORTIONS :    1, 0.46       2, 0.52       3, 0.02
  8128 1160-26-36      26    36.00       2371.    
     MULTIPLE LAYERS AND PROPORTIONS :    1, 0.79       2, 0.21
  8129 1121-26-36      26    36.00       2378.    
     MULTIPLE LAYERS AND PROPORTIONS :    1, 0.34       2, 0.21       3, 0.45
  8130 1080-26-36      26    36.00       2443.    
  8131 1048-26-36      26    36.00       2445.    
     MULTIPLE LAYERS AND PROPORTIONS :    1, 0.20       2, 0.12       3, 0.68
  8132 1075-26-36      26    36.00       2428.    
     MULTIPLE LAYERS AND PROPORTIONS :    1, 0.35       2, 0.04       3, 0.61
  8133 1016-26-36      26    36.00       2387.    
  8134 1011-26-36      26    36.00       2378.    
     MULTIPLE LAYERS AND PROPORTIONS :    1, 0.14       2, 0.14       3, 0.72
  8135 1083-26-35      26    35.00       2391.    
  8136 997-26-244      26    244.0       2404.    
  8137 910-26-166      26    166.0       2463.    
     MULTIPLE LAYERS AND PROPORTIONS :    2, 0.05       3, 0.95
  8138 1212-26-64      26    64.00       2374.    
  8139 1131-26-349     26    349.0       2441.    
  8140 1188-26-60      26    60.00       2481.    
  8141 1076-26-341     26    341.0       2520.    
     MULTIPLE LAYERS AND PROPORTIONS :    1, 0.30       2, 0.70
  8142 1000-26-18      26    18.00       2522.    
  8143 1095-26-18      26    18.00       2462.    
  8144 1035-26-61      26    61.00       2488.    
  8145 1037-26-60      26    60.00       2477.    
  8146 878-26-60       26    60.00       2496.    
     MULTIPLE LAYERS AND PROPORTIONS :    1, 0.34       2, 0.66
  8147 1250-26-84      26    84.00       2437.    
     MULTIPLE LAYERS AND PROPORTIONS :    1, 0.42       2, 0.58
  8148 1251-26-84      26    84.00       2433.    
     MULTIPLE LAYERS AND PROPORTIONS :    1, 0.24       2, 0.76
  8149 1195-26-81      26    81.00       2500.    
     MULTIPLE LAYERS AND PROPORTIONS :    1, 0.47       2, 0.53
  8150 1110-26-62      26    62.00       2530.    
  8151 1044-26-82      26    82.00       2565.    
  8152 1017-26-62      26    62.00       2545.    
  8153 973-26-95       26    95.00       2601.    
  8154 870-26-95       26    95.00       2615.    
  8155 3417-26-95      26    95.00       2627.    
     MULTIPLE LAYERS AND PROPORTIONS :    2, 0.14       3, 0.86
  8156 1246-26-305     26    305.0       2722.    
  8157 1593-26-18      26    18.00       2766.    
  8158 757-26-141      26    141.0       2333.    
     MULTIPLE LAYERS AND PROPORTIONS :    2, 0.16       3, 0.84
  8159 758-26-1        26   1.0000       2395.    
     MULTIPLE LAYERS AND PROPORTIONS :    2, 0.23       3, 0.77
  8160 722-26-64       26    64.00       2443.    
  8161 737-26-1        26   1.0000       2415.    
  8162 656-26-1        26   1.0000       2498.    
  8163 602-26-1        26   1.0000       2502.    
  8164 598-26-1        26   1.0000       2492.    
  8165 720-26-1        26   1.0000       2222.    
  8166 674-26-43       26    43.00       2549.    
     MULTIPLE LAYERS AND PROPORTIONS :    1, 0.84       2, 0.16
  8167 673-26-49       26    49.00       2545.    
     MULTIPLE LAYERS AND PROPORTIONS :    1, 0.32       2, 0.68
  8168 810-26-43       26    43.00       2512.    
  8169 785-26-65       26    65.00       2582.    
  8170 681-26-96       26    96.00       2620.    
  8171 608-26-64       26    64.00       2631.    
     MULTIPLE LAYERS AND PROPORTIONS :    2, 0.74       3, 0.26
  8172 559-26-60       26    60.00       2643.    
  8173 731-26-98       26    98.00       2678.    
  8174 683-26-91       26    91.00       2679.    
  8175 496-26-56       26    56.00       2578.    
  8176 408-26-46       26    46.00       2653.    
  8177 391-26-72       26    72.00       2685.    
     MULTIPLE LAYERS AND PROPORTIONS :    2, 0.22       3, 0.78
  8178 451-26-85       26    85.00       2697.    
  8179 477-26-63       26    63.00       2661.    
  8180 302-26-47       26    47.00       2680.    
  8181 295-26-47       26    47.00       2724.    
  8182 281-26-47       26    47.00       2687.    
  8183 270-26-41       26    41.00       2694.    
  8184 278-26-11       26    11.00       2716.    
     MULTIPLE LAYERS AND PROPORTIONS :    1, 0.77       2, 0.23
  8185 250-26-11       26    11.00       2727.    
     MULTIPLE LAYERS AND PROPORTIONS :    2, 0.02       3, 0.98
  8186 3333-27-99      27    99.00       1707.    
  8187 3176-27-347     27    347.0       1652.    
  8188 3055-27-126     27    126.0       2453.    
  8189 2747-27-253     27    253.0       2052.    
  8190 995-27-236      27    236.0       2110.    
     MULTIPLE LAYERS AND PROPORTIONS :    2, 0.06       3, 0.94
  8191 778-27-348      27    348.0       2610.    
  8192 718-27-151      27    151.0       2631.    
     MULTIPLE LAYERS AND PROPORTIONS :    2, 0.38       3, 0.62
  8193 3239-30-335     30    335.0       2915.    
  8194 3181-30-185     30    185.0       2850.    
     MULTIPLE LAYERS AND PROPORTIONS :    2, 0.28       3, 0.72
  8195 3211-30-274     30    274.0       2885.    
  8196 3189-30-181     30    181.0       2873.    
     MULTIPLE LAYERS AND PROPORTIONS :    2, 0.35       3, 0.65
  8197 3198-30-274     30    274.0       2910.    
  8198 3192-30-274     30    274.0       2905.    
  8199 3124-30-213     30    213.0       2790.    
  8200 2832-30-108     30    108.0       2015.    
     MULTIPLE LAYERS AND PROPORTIONS :    1, 0.79       2, 0.21
  8201 2673-30-244     30    244.0       2073.    
     MULTIPLE LAYERS AND PROPORTIONS :    1, 0.49       2, 0.51
  8202 2876-30-99      30    99.00       2185.    
     MULTIPLE LAYERS AND PROPORTIONS :    2, 0.26       3, 0.74
  8203 2774-30-91      30    91.00       2193.    
  8204 2733-30-27      30    27.00       2093.    
  8205 2603-30-29      30    29.00       2118.    
     MULTIPLE LAYERS AND PROPORTIONS :    1, 0.75       2, 0.25
  8206 2652-30-27      30    27.00       2115.    
     MULTIPLE LAYERS AND PROPORTIONS :    1, 0.25       2, 0.75
  8207 2576-30-30      30    30.00       2130.    
  8208 2542-30-30      30    30.00       2154.    
     MULTIPLE LAYERS AND PROPORTIONS :    1, 0.57       2, 0.43
  8209 2505-30-29      30    29.00       2150.    
  8210 2355-30-1       30   1.0000       2157.    
     MULTIPLE LAYERS AND PROPORTIONS :    2, 0.78       3, 0.22
  8211 2464-30-29      30    29.00       2154.    
  8212 2357-30-30      30    30.00       2173.    
  8213 2373-30-30      30    30.00       2161.    
     MULTIPLE LAYERS AND PROPORTIONS :    1, 0.25       2, 0.60       3, 0.15
  8214 2446-30-30      30    30.00       2180.    
     MULTIPLE LAYERS AND PROPORTIONS :    1, 0.60       2, 0.40
  8215 2445-30-121     30    121.0       2188.    
  8216 2237-30-34      30    34.00       2202.    
  8217 2137-30-35      30    35.00       2201.    
     MULTIPLE LAYERS AND PROPORTIONS :    2, 0.99       3, 0.01
  8218 2109-30-30      30    30.00       2196.    
  8219 2038-30-1       30   1.0000       2202.    
  8220 2059-30-35      30    35.00       2212.    
     MULTIPLE LAYERS AND PROPORTIONS :    1, 0.99       2, 0.01
  8221 2227-30-273     30    273.0       2279.    
     MULTIPLE LAYERS AND PROPORTIONS :    1, 0.53       2, 0.28       3, 0.19
  8222 2056-30-18      30    18.00       2281.    
  8223 2019-30-111     30    111.0       2276.    
     MULTIPLE LAYERS AND PROPORTIONS :    1, 0.69       2, 0.31
  8224 1998-30-244     30    244.0       2298.    
  8225 2086-30-14      30    14.00       2348.    
  8226 2069-30-244     30    244.0       2359.    
     MULTIPLE LAYERS AND PROPORTIONS :    1, 0.57       2, 0.43
  8227 2081-30-105     30    105.0       2369.    
  8228 2246-30-335     30    335.0       2440.    
  8229 2001-30-305     30    305.0       2546.    
  8230 1617-30-121     30    121.0       2310.    
  8231 1391-30-43      30    43.00       2344.    
     MULTIPLE LAYERS AND PROPORTIONS :    1, 0.42       2, 0.45       3, 0.13
  8232 1427-30-11      30    11.00       2340.    
  8233 1400-30-42      30    42.00       2345.    
  8234 1619-30-57      30    57.00       2328.    
     MULTIPLE LAYERS AND PROPORTIONS :    1, 0.59       2, 0.41
  8235 1693-30-51      30    51.00       2339.    
  8236 1500-30-56      30    56.00       2304.    
     MULTIPLE LAYERS AND PROPORTIONS :    1, 0.32       2, 0.68
  8237 1312-30-349     30    349.0       2406.    
  8238 1874-30-1       30   1.0000       2575.    
  8239 1857-30-157     30    157.0       2523.    
  8240 1843-30-213     30    213.0       2506.    
     MULTIPLE LAYERS AND PROPORTIONS :    1, 0.35       2, 0.65
  8241 1846-30-43      30    43.00       2486.    
     MULTIPLE LAYERS AND PROPORTIONS :    1, 0.30       2, 0.70
  8242 1676-30-79      30    79.00       2516.    
  8243 1574-30-246     30    246.0       2530.    
  8244 1368-30-60      30    60.00       2431.    
     MULTIPLE LAYERS AND PROPORTIONS :    1, 0.15       2, 0.85
  8245 1366-30-43      30    43.00       2461.    
  8246 1348-30-43      30    43.00       2520.    
  8247 1320-30-335     30    335.0       2645.    
  8248 1276-30-121     30    121.0       2559.    
  8249 1751-30-305     30    305.0       2638.    
  8250 1752-30-305     30    305.0       2582.    
  8251 1749-30-305     30    305.0       2565.    
  8252 1754-30-130     30    130.0       2612.    
  8253 812-30-6        30    6.000       2350.    
     MULTIPLE LAYERS AND PROPORTIONS :    2, 0.08       3, 0.92
  8254 1235-30-43      30    43.00       2363.    
     MULTIPLE LAYERS AND PROPORTIONS :    2, 0.35       3, 0.65
  8255 1197-30-43      30    43.00       2463.    
  8256 1187-30-182     30    182.0       2476.    
     MULTIPLE LAYERS AND PROPORTIONS :    1, 0.30       2, 0.66       3, 0.04
  8257 1194-30-1       30   1.0000       2495.    
  8258 529-30-351      30    351.0       2510.    
     MULTIPLE LAYERS AND PROPORTIONS :    2, 0.04       3, 0.96
  8259 686-30-127      30    127.0       2532.    
     MULTIPLE LAYERS AND PROPORTIONS :    1, 0.21       2, 0.32       3, 0.47
  8260 488-30-44       30    44.00       2517.    
  8261 485-30-351      30    351.0       2554.    
     MULTIPLE LAYERS AND PROPORTIONS :    2, 0.05       3, 0.95
  8262 476-30-60       30    60.00       2570.    
  8263 408-30-349      30    349.0       2630.    
  8264 402-30-213      30    213.0       2615.    
  8265 366-30-42       30    42.00       2663.    
  8266 301-30-342      30    342.0       2660.    
  8267 270-30-342      30    342.0       2667.    
  8268 3376-31-2       31    2.000       1547.    
  8269 3351-31-101     31    101.0       1629.    
  8270 3272-31-104     31    104.0       2957.    
  8271 3145-31-193     31    193.0       1750.    
     MULTIPLE LAYERS AND PROPORTIONS :    1, 0.13       2, 0.87
  8272 3161-31-244     31    244.0       1725.    
  8273 3038-31-1       31   1.0000       1696.    
     MULTIPLE LAYERS AND PROPORTIONS :    1, 0.19       2, 0.77       3, 0.04
  8274 3243-31-1       31   1.0000       2895.    
  8275 3256-31-104     31    104.0       2929.    
     MULTIPLE LAYERS AND PROPORTIONS :    2, 0.47       3, 0.53
  8276 3208-31-273     31    273.0       2890.    
     MULTIPLE LAYERS AND PROPORTIONS :    2, 0.57       3, 0.43
  8277 3153-31-348     31    348.0       2821.    
     MULTIPLE LAYERS AND PROPORTIONS :    2, 0.40       3, 0.60
  8278 3164-31-283     31    283.0       2845.    
     MULTIPLE LAYERS AND PROPORTIONS :    2, 0.39       3, 0.61
  8279 3093-31-104     31    104.0       2691.    
  8280 2787-31-57      31    57.00       1715.    
  8281 2734-31-1       31   1.0000       1719.    
     MULTIPLE LAYERS AND PROPORTIONS :    2, 0.06       3, 0.94
  8282 2823-31-196     31    196.0       1708.    
  8283 2927-31-29      31    29.00       1953.    
     MULTIPLE LAYERS AND PROPORTIONS :    1, 0.20       2, 0.63       3, 0.17
  8284 2743-31-220     31    220.0       2083.    
  8285 2756-31-252     31    252.0       2034.    
     MULTIPLE LAYERS AND PROPORTIONS :    1, 0.13       2, 0.87
  8286 2699-31-1       31   1.0000       2064.    
  8287 2687-31-266     31    266.0       2081.    
     MULTIPLE LAYERS AND PROPORTIONS :    1, 0.55       2, 0.45
  8288 2615-31-1       31   1.0000       1813.    
  8289 2650-31-60      31    60.00       2101.    
  8290 2558-31-121     31    121.0       2120.    
     MULTIPLE LAYERS AND PROPORTIONS :    1, 0.23       2, 0.77
  8291 2475-31-120     31    120.0       2142.    
     MULTIPLE LAYERS AND PROPORTIONS :    1, 0.31       2, 0.69
  8292 2460-31-120     31    120.0       2159.    
     MULTIPLE LAYERS AND PROPORTIONS :    1, 0.38       2, 0.62
  8293 2427-31-120     31    120.0       2172.    
     MULTIPLE LAYERS AND PROPORTIONS :    1, 0.33       2, 0.67
  8294 2326-31-121     31    121.0       2234.    
     MULTIPLE LAYERS AND PROPORTIONS :    1, 0.30       2, 0.58       3, 0.12
  8295 2212-31-121     31    121.0       2209.    
     MULTIPLE LAYERS AND PROPORTIONS :    1, 0.13       2, 0.87
  8296 1991-31-36      31    36.00       2203.    
     MULTIPLE LAYERS AND PROPORTIONS :    1, 0.40       2, 0.60
  8297 1958-31-36      31    36.00       2205.    
     MULTIPLE LAYERS AND PROPORTIONS :    1, 0.30       2, 0.70
  8298 2057-31-121     31    121.0       2211.    
  8299 1951-31-36      31    36.00       2239.    
     MULTIPLE LAYERS AND PROPORTIONS :    1, 0.81       2, 0.19
  8300 2014-31-121     31    121.0       2308.    
  8301 1974-31-120     31    120.0       2295.    
  8302 2102-31-119     31    119.0       2325.    
     MULTIPLE LAYERS AND PROPORTIONS :    1, 0.19       2, 0.81
  8303 2054-31-91      31    91.00       2321.    
     MULTIPLE LAYERS AND PROPORTIONS :    1, 0.31       2, 0.69
  8304 2339-31-78      31    78.00       2474.    
  8305 2330-31-196     31    196.0       2520.    
  8306 2100-31-78      31    78.00       2521.    
  8307 2043-31-211     31    211.0       2485.    
     MULTIPLE LAYERS AND PROPORTIONS :    1, 0.59       2, 0.41
  8308 1849-31-1       31   1.0000       2249.    
     MULTIPLE LAYERS AND PROPORTIONS :    1, 0.73       2, 0.27
  8309 1471-31-113     31    113.0       2330.    
     MULTIPLE LAYERS AND PROPORTIONS :    1, 0.57       2, 0.43
  8310 1461-31-40      31    40.00       2308.    
     MULTIPLE LAYERS AND PROPORTIONS :    2, 0.50       3, 0.50
  8311 1321-31-40      31    40.00       2335.    
  8312 1306-31-113     31    113.0       2337.    
     MULTIPLE LAYERS AND PROPORTIONS :    1, 0.31       2, 0.69
  8313 1307-31-113     31    113.0       2342.    
  8314 1305-31-121     31    121.0       2345.    
  8315 1886-31-119     31    119.0       2327.    
  8316 1879-31-119     31    119.0       2322.    
     MULTIPLE LAYERS AND PROPORTIONS :    1, 0.20       2, 0.80
  8317 1779-31-119     31    119.0       2295.    
  8318 1724-31-118     31    118.0       2294.    
  8319 1694-31-119     31    119.0       2307.    
     MULTIPLE LAYERS AND PROPORTIONS :    1, 0.79       2, 0.21
  8320 1695-31-120     31    120.0       2314.    
  8321 1596-31-119     31    119.0       2320.    
  8322 1683-31-68      31    68.00       2347.    
     MULTIPLE LAYERS AND PROPORTIONS :    1, 0.71       2, 0.29
  8323 1552-31-117     31    117.0       2327.    
  8324 1533-31-118     31    118.0       2316.    
  8325 1813-31-117     31    117.0       2308.    
  8326 1538-31-117     31    117.0       2310.    
     MULTIPLE LAYERS AND PROPORTIONS :    1, 0.14       2, 0.86
  8327 1470-31-117     31    117.0       2313.    
  8328 1453-31-117     31    117.0       2336.    
  8329 1502-31-120     31    120.0       2339.    
     MULTIPLE LAYERS AND PROPORTIONS :    1, 0.40       2, 0.60
  8330 1416-31-62      31    62.00       2338.    
     MULTIPLE LAYERS AND PROPORTIONS :    1, 0.72       2, 0.28
  8331 1784-31-148     31    148.0       2366.    
     MULTIPLE LAYERS AND PROPORTIONS :    1, 0.20       2, 0.80
  8332 1659-31-114     31    114.0       2355.    
     MULTIPLE LAYERS AND PROPORTIONS :    1, 0.55       2, 0.45
  8333 1671-31-114     31    114.0       2350.    
     MULTIPLE LAYERS AND PROPORTIONS :    1, 0.72       2, 0.28
  8334 1602-31-114     31    114.0       2371.    
  8335 1507-31-114     31    114.0       2358.    
  8336 1514-31-114     31    114.0       2349.    
     MULTIPLE LAYERS AND PROPORTIONS :    1, 0.14       2, 0.86
  8337 1495-31-69      31    69.00       2358.    
     MULTIPLE LAYERS AND PROPORTIONS :    1, 0.18       2, 0.82
  8338 1484-31-114     31    114.0       2348.    
  8339 1483-31-114     31    114.0       2436.    
  8340 1239-31-113     31    113.0       2352.    
     MULTIPLE LAYERS AND PROPORTIONS :    1, 0.16       2, 0.58       3, 0.26
  8341 1234-31-113     31    113.0       2349.    
     MULTIPLE LAYERS AND PROPORTIONS :    1, 0.14       2, 0.34       3, 0.52
  8342 1099-31-117     31    117.0       2361.    
     MULTIPLE LAYERS AND PROPORTIONS :    1, 0.26       2, 0.24       3, 0.50
  8343 853-31-118      31    118.0       2482.    
  8344 720-31-1        31   1.0000       2221.    
  8345 729-31-118      31    118.0       2508.    
     MULTIPLE LAYERS AND PROPORTIONS :    1, 0.47       2, 0.53
  8346 679-31-118      31    118.0       2516.    
     MULTIPLE LAYERS AND PROPORTIONS :    1, 0.95       2, 0.05
  8347 810-31-118      31    118.0       2479.    
  8348 299-31-59       31    59.00       2671.    
     MULTIPLE LAYERS AND PROPORTIONS :    2, 0.14       3, 0.86
  8349 3281-32-351     32    351.0       1586.    
  8350 3347-32-97      32    97.00       2965.    
  8351 3051-32-152     32    152.0       1691.    
     MULTIPLE LAYERS AND PROPORTIONS :    2, 0.43       3, 0.57
  8352 3004-32-94      32    94.00       2011.    
     MULTIPLE LAYERS AND PROPORTIONS :    2, 0.30       3, 0.70
  8353 2997-32-94      32    94.00       2234.    
  8354 3016-32-94      32    94.00       2280.    
  8355 3055-32-94      32    94.00       2452.    
  8356 2880-32-95      32    95.00       2083.    
  8357 2883-32-196     32    196.0       2011.    
  8358 2977-32-96      32    96.00       2361.    
     MULTIPLE LAYERS AND PROPORTIONS :    2, 0.89       3, 0.11
  8359 2914-32-96      32    96.00       2130.    
  8360 2930-32-96      32    96.00       2337.    
  8361 2869-32-96      32    96.00       2320.    
  8362 2898-32-96      32    96.00       2125.    
  8363 2841-32-96      32    96.00       2182.    
  8364 2742-32-95      32    95.00       2130.    
  8365 2956-32-95      32    95.00       2527.    
  8366 2441-32-216     32    216.0       1804.    
  8367 2477-32-137     32    137.0       1798.    
  8368 2334-32-335     32    335.0       2382.    
  8369 2314-32-342     32    342.0       2365.    
  8370 2331-32-29      32    29.00       2480.    
  8371 2128-32-154     32    154.0       2478.    
  8372 2092-32-154     32    154.0       2468.    
  8373 2085-32-154     32    154.0       2448.    
  8374 1278-32-50      32    50.00       2361.    
  8375 1791-32-119     32    119.0       2331.    
     MULTIPLE LAYERS AND PROPORTIONS :    1, 0.28       2, 0.72
  8376 1131-32-62      32    62.00       2436.    
  8377 1035-32-71      32    71.00       2477.    
  8378 2799-35-122     35    122.0       1998.    
     MULTIPLE LAYERS AND PROPORTIONS :    2, 0.81       3, 0.19
  8379 861-35-329      35    329.0       2230.    
  8380 3038-36-52      36    52.00       1680.    
     MULTIPLE LAYERS AND PROPORTIONS :    1, 0.19       2, 0.77       3, 0.04
  8381 2937-36-86      36    86.00       1764.    
     MULTIPLE LAYERS AND PROPORTIONS :    2, 0.86       3, 0.14
  8382 1428-36-91      36    91.00       1955.    
  8383 1106-36-164     36    164.0       2031.    
  8384 727-36-333      36    333.0       2585.    
     MULTIPLE LAYERS AND PROPORTIONS :    2, 0.85       3, 0.15
  8385 492-36-108      36    108.0       2478.    
  8386 380-36-78       36    78.00       2594.    
     MULTIPLE LAYERS AND PROPORTIONS :    2, 0.12       3, 0.88
  8387 3318-37-364     37    364.0       1613.    
     MULTIPLE LAYERS AND PROPORTIONS :    2, 0.14       3, 0.86
  8388 2476-37-182     37    182.0       2165.    
  8389 2437-37-1       37   1.0000       2175.    
  8390 1436-37-201     37    201.0       2321.    
  8391 974-37-342      37    342.0       2328.    
  8392 981-37-84       37    84.00       2562.    
  8393 814-37-58       37    58.00       2570.    
  8394 697-37-41       37    41.00       2615.    
     MULTIPLE LAYERS AND PROPORTIONS :    2, 0.47       3, 0.53
  8395 659-37-16       37    16.00       2662.    
     MULTIPLE LAYERS AND PROPORTIONS :    1, 0.38       2, 0.53       3, 0.09

                                                     HEAD CHANGE
                                                      REFERENCE
        OBSERVATION                   ROW     COL    OBSERVATION
  OBS#     NAME       LAY  ROW  COL  OFFSET  OFFSET   (IF > 0)
     1  3522-15-337     3    4   65  -0.350   0.330        0
     2  3489-20-74      3    6   64  -0.200  -0.130        0
     3  3485-19-34      3    6   67   0.290   0.050        0
     4  3465-20-300     3    8   66   0.210  -0.090        0
     5  3415-15-154     3   12   67  -0.010   0.340        0
     6  3314-43-7       3   19   66  -0.310   0.240        0
     7  3241-5-82       3   23   68  -0.290  -0.200        0
     8  3384-7-41       2    4   12  -0.470  -0.420        0
     9  3384-12-10      2    4   12  -0.470  -0.420        0
    10  3384-16-340     2    4   12  -0.470  -0.420        0
    11  3384-21-335     2    4   12  -0.470  -0.420        0
    12  3384-27-13      2    4   12  -0.470  -0.420        0
    13  3384-32-5       2    4   12  -0.470  -0.420        0
    14  3384-36-349     2    4   12  -0.470  -0.420        0
    15  3400-55-321     3    1   19   0.030  -0.350        0
    16  3400-60-312     3    1   19   0.030  -0.350        0
    17  3400-65-363     3    1   19   0.030  -0.350        0
    18  3400-71-349     3    1   19   0.030  -0.350        0
    19  3401-55-321     2    1   19   0.030  -0.350        0
    20  3401-60-312     2    1   19   0.030  -0.350        0
    21  3401-65-363     2    1   19   0.030  -0.350        0
    22  3401-71-349     2    1   19   0.030  -0.350        0
    23  3397-11-313     2    2   17  -0.330   0.290        0
    24  3361-21-339     2    5   12   0.250  -0.430        0
    25  3361-32-5       2    5   12   0.250  -0.430        0
    26  3346-16-340     2    6   12  -0.010  -0.460        0
    27  3346-21-339     2    6   12  -0.010  -0.460        0
    28  3346-32-5       2    6   12  -0.010  -0.460        0
    29  3346-37-349     2    6   12  -0.010  -0.460        0
    30  3346-49-54      2    6   12  -0.010  -0.460        0
    31  3346-60-319     2    6   12  -0.010  -0.460        0
    32  3346-65-298     2    6   12  -0.010  -0.460        0
    33  3346-71-13      2    6   12  -0.010  -0.460        0
    34  3376-6-41       2    7   14  -0.080  -0.350        0
    35  3376-12-46      2    7   14  -0.080  -0.350        0
    36  3376-16-362     2    7   14  -0.080  -0.350        0
    37  3376-21-336     2    7   14  -0.080  -0.350        0
    38  3376-27-12      2    7   14  -0.080  -0.350        0
    39  3376-38-1       2    7   14  -0.080  -0.350        0
    40  3327-56-26      2    8   14  -0.210   0.480        0
    41  3327-66-18      2    8   14  -0.210   0.480        0
    42  3306-1-32       2    9   14   0.280  -0.140        0
    43  3299-38-41      2   10   14  -0.490   0.000        0
    44  3311-15-337     2    9   65  -0.220   0.430        0
    45  3313-32-7       2    9   16  -0.330  -0.390        0
    46  3313-38-1       2    9   16  -0.330  -0.390        0
    47  3313-56-26      2    9   16  -0.330  -0.390        0
    48  3313-66-18      2    9   16  -0.330  -0.390        0
    49  3303-56-26      2    9   15   0.320  -0.070        0
    50  3303-66-18      2    9   15   0.320  -0.070        0
    51  3302-12-32      2    9   16   0.400  -0.360        0
    52  3302-56-26      2    9   16   0.400  -0.360        0
    53  3302-66-18      2    9   16   0.400  -0.360        0
    54  3320-2-305      1    8   13   0.360   0.310        0
    55  3324-26-339     2    8   13   0.090  -0.470        0
    56  3312-16-335     2    9   13  -0.340  -0.460        0
    57  3312-21-335     2    9   13  -0.340  -0.460        0
    58  3312-32-1       2    9   13  -0.340  -0.460        0
    59  3312-36-51      2    9   13  -0.340  -0.460        0
    60  3294-1-60       2   10   13   0.230   0.470        0
    61  3291-16-362     2   10   13   0.230   0.500        0
    62  3288-12-32      2   11   12  -0.080   0.390        0
    63  3288-21-335     2   11   12  -0.080   0.390        0
    64  3288-32-7       2   11   12  -0.080   0.390        0
    65  3282-21-336     2   11   14   0.250  -0.480        0
    66  3282-32-7       2   11   14   0.250  -0.480        0
    67  3282-38-10      2   11   14   0.250  -0.480        0
    68  3285-5-179      2   11   16   0.160  -0.430        0
    69  3285-11-25      2   11   16   0.160  -0.430        0
    70  3285-16-341     2   11   16   0.160  -0.430        0
    71  3285-21-336     2   11   16   0.160  -0.430        0
    72  3279-12-39      2   11   16   0.430  -0.460        0
    73  3279-16-362     2   11   16   0.430  -0.460        0
    74  3279-21-341     2   11   16   0.430  -0.460        0
    75  3279-27-28      2   11   16   0.430  -0.460        0
    76  3281-21-336     2   11   16   0.350  -0.460        0
    77  3281-37-350     2   11   16   0.350  -0.460        0
    78  3268-21-274     2   13   15   0.150   0.500        0
    79  3268-38-6       2   13   15   0.150   0.500        0
    80  3259-16-348    -3   14   15   0.410  -0.150        0
    81  3259-32-7      -2   14   15   0.410  -0.150        0
    82  3259-36-350    -2   14   15   0.410  -0.150        0
    83  3237-1-365      1   15   15   0.330   0.390        0
    84  3237-3-355      1   15   15   0.330   0.390        0
    85  3237-12-59      1   15   15   0.330   0.390        0
    86  3237-12-59      1   15   15   0.330   0.390        0
    87  3234-6-284      2   15   15   0.370   0.360        0
    88  3234-12-32      2   15   15   0.370   0.360        0
    89  3234-16-348     2   15   15   0.370   0.360        0
    90  3231-21-341    -2   15   15   0.290   0.330        0
    91  3231-27-12     -2   15   15   0.290   0.330        0
    92  3231-38-3      -2   15   15   0.290   0.330        0
    93  3382-48-363     2    4   20  -0.370  -0.390        0
    94  3383-48-363     2    4   20  -0.370  -0.390        0
    95  3363-56-23      2    5   20   0.090   0.100        0
    96  3363-66-18      2    5   20   0.090   0.100        0
    97  3364-11-342    -2    5   20  -0.030  -0.450        0
    98  3364-16-362    -2    5   20  -0.030  -0.450        0
    99  3364-21-341    -2    5   20  -0.030  -0.450        0
   100  3364-27-28      2    5   20  -0.030  -0.450        0
   101  3364-32-4       2    5   20  -0.030  -0.450        0
   102  3364-36-349     2    5   20  -0.030  -0.450        0
   103  3364-43-19      2    5   20  -0.030  -0.450        0
   104  3364-49-54      2    5   20  -0.030  -0.450        0
   105  3364-56-25      2    5   20  -0.030  -0.450        0
   106  3364-60-319     2    5   20  -0.030  -0.450        0
   107  3364-65-298    -2    5   20  -0.030  -0.450        0
   108  3364-71-13     -2    5   20  -0.030  -0.450        0
   109  3364-71-365    -2    5   20  -0.030  -0.450        0
   110  3370-56-25      2    5   19  -0.490   0.090        0
   111  3370-61-72      2    5   19  -0.490   0.090        0
   112  3370-66-18      2    5   19  -0.490   0.090        0
   113  3353-21-335     2    6   20  -0.450  -0.460        0
   114  3353-27-12      2    6   20  -0.450  -0.460        0
   115  3353-56-25      2    6   20  -0.450  -0.460        0
   116  3353-66-18      2    6   20  -0.450  -0.460        0
   117  3351-56-25      2    6   20  -0.490  -0.230        0
   118  3351-61-72      2    6   20  -0.490  -0.230        0
   119  3351-66-18      2    6   20  -0.490  -0.230        0
   120  3310-56-23      3    9   23  -0.230  -0.260        0
   121  3307-56-23      2    9   23   0.040   0.160        0
   122  3307-61-73      2    9   23   0.040   0.160        0
   123  3307-66-20      2    9   23   0.040   0.160        0
   124  3292-56-25     -2   10   19   0.370  -0.310        0
   125  3292-61-73     -2   10   19   0.370  -0.310        0
   126  3292-66-19     -2   10   19   0.370  -0.310        0
   127  3278-11-296     2   11   19   0.480  -0.220        0
   128  3278-16-343     2   11   19   0.480  -0.220        0
   129  3278-21-340     2   11   19   0.480  -0.220        0
   130  3278-27-12      2   11   19   0.480  -0.220        0
   131  3278-32-4       2   11   19   0.480  -0.220        0
   132  3278-36-350     2   11   19   0.480  -0.220        0
   133  3278-43-19      2   11   19   0.480  -0.220        0
   134  3278-49-54      2   11   19   0.480  -0.220        0
   135  3278-56-25      2   11   19   0.480  -0.220        0
   136  3278-60-319     2   11   19   0.480  -0.220        0
   137  3278-65-301     2   11   19   0.480  -0.220        0
   138  3278-71-13      2   11   19   0.480  -0.220        0
   139  3278-71-365     2   11   19   0.480  -0.220        0
   140  3290-56-25     -2   10   20   0.480  -0.370        0
   141  3290-61-73     -2   10   20   0.480  -0.370        0
   142  3290-66-19     -2   10   20   0.480  -0.370        0
   143  3250-12-32      1   15   22  -0.300   0.010        0
   144  3250-16-363     1   15   22  -0.300   0.010        0
   145  3250-21-335     1   15   22  -0.300   0.010        0
   146  3250-32-7       1   15   22  -0.300   0.010        0
   147  3250-36-352     1   15   22  -0.300   0.010        0
   148  3308-56-25     -2   15   22  -0.380   0.080        0
   149  3308-61-73     -2   15   22  -0.380   0.080        0
   150  3308-66-20     -2   15   22  -0.380   0.080        0
   151  3249-16-363     1   15   22  -0.420  -0.340        0
   152  3249-21-340     1   15   22  -0.420  -0.340        0
   153  3249-36-352     1   15   22  -0.420  -0.340        0
   154  3249-56-25      1   15   22  -0.420  -0.340        0
   155  3249-61-73      1   15   22  -0.420  -0.340        0
   156  3233-3-355      1   15   22   0.390   0.430        0
   157  3233-6-341      1   15   22   0.390   0.430        0
   158  3233-12-59      1   15   22   0.390   0.430        0
   159  3233-16-311     1   15   22   0.390   0.430        0
   160  3230-16-348    -2   16   23  -0.460  -0.020        0
   161  3230-21-340    -2   16   23  -0.460  -0.020        0
   162  3230-27-1      -2   16   23  -0.460  -0.020        0
   163  3230-32-7      -2   16   23  -0.460  -0.020        0
   164  3230-36-352     2   16   23  -0.460  -0.020        0
   165  3230-56-25      2   16   23  -0.460  -0.020        0
   166  3230-61-72      2   16   23  -0.460  -0.020        0
   167  3229-17-4      -2   15   23   0.430   0.440        0
   168  3247-61-73      2   15   24  -0.180  -0.370        0
   169  3247-66-20      2   15   24  -0.180  -0.370        0
   170  3368-56-25      3    5   30  -0.230   0.240        0
   171  3333-12-10      2    7   30   0.410   0.170        0
   172  3333-16-343     2    7   30   0.410   0.170        0
   173  3333-32-85      3    7   30   0.410   0.170        0
   174  3333-35-53      3    7   30   0.410   0.170        0
   175  3332-49-54      2    7   30   0.410   0.200        0
   176  3332-56-26      2    7   30   0.410   0.200        0
   177  3332-60-319     2    7   30   0.410   0.200        0
   178  3332-65-298     2    7   30   0.410   0.200        0
   179  3332-71-13      2    7   30   0.410   0.200        0
   180  3332-71-365     2    7   30   0.410   0.200        0
   181  3330-56-25      2    8   29  -0.360   0.490        0
   182  3315-48-300     3    9   28  -0.140   0.090        0
   183  3315-55-321     3    9   28  -0.140   0.090        0
   184  3315-60-312     3    9   28  -0.140   0.090        0
   185  3315-65-363     3    9   28  -0.140   0.090        0
   186  3315-71-351     3    9   28  -0.140   0.090        0
   187  3316-48-300     2    9   28  -0.140   0.090        0
   188  3316-55-321     2    9   28  -0.140   0.090        0
   189  3316-60-312     2    9   28  -0.140   0.090        0
   190  3316-65-363     2    9   28  -0.140   0.090        0
   191  3316-71-351     2    9   28  -0.140   0.090        0
   192  3284-56-25      3   11   34   0.320   0.050        0
   193  3275-38-12      3   12   35  -0.290   0.050        0
   194  3287-38-24      2   11   30   0.160  -0.390        0
   195  3265-48-364     2   14   29  -0.470   0.250        0
   196  3265-56-25     -2   14   29  -0.470   0.250        0
   197  3228-56-20     -2   15   28   0.480   0.110        0
   198  3228-61-73     -2   15   28   0.480   0.110        0
   199  3228-66-19     -2   15   28   0.480   0.110        0
   200  3347-20-74      3    6   64  -0.200  -0.130        0
   201  3347-26-157     3    6   64  -0.200  -0.130        0
   202  3347-37-33      3    6   64  -0.200  -0.130        0
   203  3347-43-82      3    6   64  -0.200  -0.130        0
   204  3347-48-336     3    6   64  -0.200  -0.130        0
   205  3347-56-23      3    6   64  -0.200  -0.130        0
   206  3347-61-62      3    6   64  -0.200  -0.130        0
   207  3347-65-299     3    6   64  -0.200  -0.130        0
   208  3347-71-12      3    6   64  -0.200  -0.130        0
   209  3347-71-365     3    6   64  -0.200  -0.130        0
   210  3378-15-337     2    4   65  -0.350   0.330        0
   211  3378-26-127     2    4   65  -0.350   0.330        0
   212  3378-33-312     2    4   65  -0.350   0.330        0
   213  3378-43-82      2    4   65  -0.350   0.330        0
   214  3378-48-337     2    4   65  -0.350   0.330        0
   215  3378-56-23      2    4   65  -0.350   0.330        0
   216  3378-61-62      2    4   65  -0.350   0.330        0
   217  3378-66-18      2    4   65  -0.350   0.330        0
   218  3336-71-63      3    7   72   0.200   0.480        0
   219  3343-19-34      2    6   67   0.290   0.050        0
   220  3343-26-121     2    6   67   0.290   0.050        0
   221  3343-33-311     2    6   67   0.290   0.050        0
   222  3343-43-82      2    6   67   0.290   0.050        0
   223  3343-48-336     2    6   67   0.290   0.050        0
   224  3343-56-25      2    6   67   0.290   0.050        0
   225  3343-61-62      2    6   67   0.290   0.050        0
   226  3343-66-24      2    6   67   0.290   0.050        0
   227  3343-71-63      2    6   67   0.290   0.050        0
   228  3322-20-300     3    8   66   0.210  -0.090        0
   229  3322-26-127     3    8   66   0.210  -0.090        0
   230  3322-48-337     3    8   66   0.210  -0.090        0
   231  3322-56-25      3    8   66   0.210  -0.090        0
   232  3322-61-60      3    8   66   0.210  -0.090        0
   233  3317-43-85      3    9   66  -0.490  -0.410        0
   234  3317-56-25      3    9   66  -0.490  -0.410        0
   235  3317-61-60      3    9   66  -0.490  -0.410        0
   236  3317-66-27      3    9   66  -0.490  -0.410        0
   237  3317-71-64      3    9   66  -0.490  -0.410        0
   238  3300-56-26      3   10   73  -0.420  -0.440        0
   239  3289-56-26      3   11   71  -0.080   0.000        0
   240  3289-61-65      3   11   71  -0.080   0.000        0
   241  3276-56-26      3   12   71  -0.360   0.260        0
   242  3270-56-26      2   12   72   0.140  -0.050        0
   243  3272-15-154     3   12   67  -0.010   0.340        0
   244  3272-26-125     3   12   67  -0.010   0.340        0
   245  3272-37-36      3   12   67  -0.010   0.340        0
   246  3272-43-27      3   12   67  -0.010   0.340        0
   247  3272-48-336     3   12   67  -0.010   0.340        0
   248  3272-56-26      3   12   67  -0.010   0.340        0
   249  3272-61-60      3   12   67  -0.010   0.340        0
   250  3272-71-12      2   12   67  -0.010   0.340        0
   251  3266-56-26      3   13   67   0.370  -0.180        0
   252  3260-33-313     2   14   73   0.130   0.180        0
   253  3260-48-334     2   14   73   0.130   0.180        0
   254  3260-56-26      2   14   73   0.130   0.180        0
   255  3222-38-6       2   16   24  -0.190   0.120        0
   256  3213-12-324     2   16   20   0.420   0.420        0
   257  3213-16-335     2   16   20   0.420   0.420        0
   258  3213-21-335     2   16   20   0.420   0.420        0
   259  3213-32-7       2   16   20   0.420   0.420        0
   260  3213-38-10      2   16   20   0.420   0.420        0
   261  3213-56-19      2   16   20   0.420   0.420        0
   262  3205-2-230     -2   17   18  -0.170   0.310        0
   263  3205-22-37     -2   17   18  -0.170   0.310        0
   264  3191-2-188      1   18   18  -0.250   0.340        0
   265  3178-17-4       2   18   18   0.440   0.430        0
   266  3178-22-37      2   18   18   0.440   0.430        0
   267  3178-32-85      2   18   18   0.440   0.430        0
   268  3178-36-65      2   18   18   0.440   0.430        0
   269  3178-42-349     2   18   18   0.440   0.430        0
   270  3178-48-341     2   18   18   0.440   0.430        0
   271  3178-56-23      2   18   18   0.440   0.430        0
   272  3178-60-319     2   18   18   0.440   0.430        0
   273  3177-17-4      -2   18   20   0.480  -0.330        0
   274  3176-11-297    -2   18   20   0.330   0.350        0
   275  3176-16-342    -2   18   20   0.330   0.350        0
   276  3176-21-342    -2   18   20   0.330   0.350        0
   277  3176-32-7       2   18   20   0.330   0.350        0
   278  3176-34-339     2   18   20   0.330   0.350        0
   279  3174-21-335     2   18   22   0.370   0.330        0
   280  3174-56-19      2   18   22   0.370   0.330        0
   281  3174-61-60      2   18   22   0.370   0.330        0
   282  3174-66-24      2   18   22   0.370   0.330        0
   283  3188-2-335      1   18   24  -0.120   0.400        0
   284  3188-6-341      1   18   24  -0.120   0.400        0
   285  3188-10-350     1   18   24  -0.120   0.400        0
   286  3199-38-6      -2   17   26   0.350   0.320        0
   287  3199-48-337    -2   17   26   0.350   0.320        0
   288  3199-61-60     -2   17   26   0.350   0.320        0
   289  3175-48-337     2   18   24   0.460   0.500        0
   290  3175-56-19      2   18   24   0.460   0.500        0
   291  3175-66-24      2   18   24   0.460   0.500        0
   292  3196-56-19      2   18   26  -0.460   0.480        0
   293  3171-21-335     2   19   26  -0.460   0.280        0
   294  3171-26-313     2   19   26  -0.460   0.280        0
   295  3171-48-337     2   19   26  -0.460   0.280        0
   296  3173-48-337     2   18   26   0.500   0.220        0
   297  3173-56-19      2   18   26   0.500   0.220        0
   298  3173-61-60      2   18   26   0.500   0.220        0
   299  3173-66-20      2   18   26   0.500   0.220        0
   300  3172-56-19      2   19   23  -0.470   0.430        0
   301  3172-61-60      2   19   23  -0.470   0.430        0
   302  3172-66-24      2   19   23  -0.470   0.430        0
   303  3163-12-91      2   20   24  -0.360   0.110        0
   304  3163-21-335     2   20   24  -0.360   0.110        0
   305  3197-42-351    -2   17   22   0.420   0.330        0
   306  3197-48-348    -2   17   22   0.420   0.330        0
   307  3197-56-4      -2   17   22   0.420   0.330        0
   308  3197-61-5      -2   17   22   0.420   0.330        0
   309  3197-65-361    -2   17   22   0.420   0.330        0
   310  3197-71-355    -2   17   22   0.420   0.330        0
   311  3170-16-348    -2   19   22  -0.090   0.450        0
   312  3170-21-342     2   19   22  -0.090   0.450        0
   313  3170-38-6       2   19   22  -0.090   0.450        0
   314  3170-42-351     2   19   22  -0.090   0.450        0
   315  3170-48-348     2   19   22  -0.090   0.450        0
   316  3170-55-354     2   19   22  -0.090   0.450        0
   317  3170-61-5       2   19   22  -0.090   0.450        0
   318  3170-65-361     2   19   22  -0.090   0.450        0
   319  3170-71-355     2   19   22  -0.090   0.450        0
   320  3139-21-343     2   20   21   0.360   0.440        0
   321  3139-71-355     2   20   21   0.360   0.440        0
   322  3143-17-5       2   20   22   0.330   0.320        0
   323  3143-22-37      2   20   22   0.330   0.320        0
   324  3143-27-31      2   20   22   0.330   0.320        0
   325  3143-55-354     2   20   22   0.330   0.320        0
   326  3143-61-5       2   20   22   0.330   0.320        0
   327  3143-65-361     2   20   22   0.330   0.320        0
   328  3143-71-355     2   20   22   0.330   0.320        0
   329  3166-1-1       -2   19   18   0.360   0.330        0
   330  3166-11-335    -2   19   18   0.360   0.330        0
   331  3166-21-335    -2   19   18   0.360   0.330        0
   332  3100-16-338     3   22   17   0.490   0.480        0
   333  3100-21-335    -2   22   17   0.490   0.480        0
   334  3100-43-60      3   22   17   0.490   0.480        0
   335  3100-55-354     3   22   17   0.490   0.480        0
   336  3100-61-5      -2   22   17   0.490   0.480        0
   337  3100-66-20     -2   22   17   0.490   0.480        0
   338  3100-71-355    -2   22   17   0.490   0.480        0
   339  2939-42-351     2   22   18   0.380   0.160        0
   340  2939-61-5       2   22   18   0.380   0.160        0
   341  2939-70-352     2   22   18   0.380   0.160        0
   342  2939-71-355     2   22   18   0.380   0.160        0
   343  3099-21-335    -2   22   18   0.380   0.230        0
   344  3099-61-5      -2   22   18   0.380   0.230        0
   345  3099-66-20     -2   22   18   0.380   0.230        0
   346  3099-71-355    -2   22   18   0.380   0.230        0
   347  3113-1-59       2   21   22   0.440   0.350        0
   348  3113-6-341      2   21   22   0.440   0.350        0
   349  3113-12-362     2   21   22   0.440   0.350        0
   350  3113-22-37      2   21   22   0.440   0.350        0
   351  3113-27-31      2   21   22   0.440   0.350        0
   352  3113-37-341     2   21   22   0.440   0.350        0
   353  3113-42-349     2   21   22   0.440   0.350        0
   354  3113-48-341     2   21   22   0.440   0.350        0
   355  3113-55-354     2   21   22   0.440   0.350        0
   356  3113-60-319     2   21   22   0.440   0.350        0
   357  3113-65-298     2   21   22   0.440   0.350        0
   358  3113-71-355     2   21   22   0.440   0.350        0
   359  3097-12-170     2   22   22   0.470   0.410        0
   360  3097-17-5       2   22   22   0.470   0.410        0
   361  3097-42-351     2   22   22   0.470   0.410        0
   362  3097-48-348     2   22   22   0.470   0.410        0
   363  3097-55-354     2   22   22   0.470   0.410        0
   364  3097-61-5       2   22   22   0.470   0.410        0
   365  3097-65-361     2   22   22   0.470   0.410        0
   366  3097-71-355     2   22   22   0.470   0.410        0
   367  3095-42-351     2   22   22   0.390   0.310        0
   368  3095-48-348     2   22   22   0.390   0.310        0
   369  3095-55-354     2   22   22   0.390   0.310        0
   370  3095-61-5       2   22   22   0.390   0.310        0
   371  3095-65-361     2   22   22   0.390   0.310        0
   372  3095-71-355     2   22   22   0.390   0.310        0
   373  3096-8-283     -2   22   24   0.360   0.360        0
   374  3096-17-5      -2   22   24   0.360   0.360        0
   375  3096-21-335     2   22   24   0.360   0.360        0
   376  3135-8-282     -2   20   26   0.490   0.410        0
   377  3135-11-355    -2   20   26   0.490   0.410        0
   378  3135-16-349    -2   20   26   0.490   0.410        0
   379  3135-21-312     2   20   26   0.490   0.410        0
   380  3135-26-292     2   20   26   0.490   0.410        0
   381  3135-38-5       2   20   26   0.490   0.410        0
   382  3135-48-337     2   20   26   0.490   0.410        0
   383  3135-56-19      2   20   26   0.490   0.410        0
   384  3135-61-60      2   20   26   0.490   0.410        0
   385  3121-55-354     2   21   25   0.020   0.370        0
   386  3121-61-5       2   21   25   0.020   0.370        0
   387  3121-66-20      2   21   25   0.020   0.370        0
   388  3121-71-365     2   21   25   0.020   0.370        0
   389  3059-10-57      1   24   26   0.200   0.400        0
   390  3059-17-5       1   24   26   0.200   0.400        0
   391  3059-27-31      2   24   26   0.200   0.400        0
   392  3059-37-33      2   24   26   0.200   0.400        0
   393  3059-42-349     2   24   26   0.200   0.400        0
   394  3059-48-342     2   24   26   0.200   0.400        0
   395  3059-56-20      2   24   26   0.200   0.400        0
   396  3059-60-319     2   24   26   0.200   0.400        0
   397  3059-65-301     1   24   26   0.200   0.400        0
   398  3059-71-365     1   24   26   0.200   0.400        0
   399  3078-21-335     2   23   24   0.390   0.360        0
   400  3080-11-297    -2   23   23   0.200  -0.360        0
   401  3075-56-20      2   24   24  -0.420   0.390        0
   402  3089-2-339      2   23   21  -0.080   0.080        0
   403  3089-6-341      2   23   21  -0.080   0.080        0
   404  3089-12-362     2   23   21  -0.080   0.080        0
   405  3089-16-313     2   23   21  -0.080   0.080        0
   406  3089-42-351     2   23   21  -0.080   0.080        0
   407  3089-65-361     2   23   21  -0.080   0.080        0
   408  3089-71-355     2   23   21  -0.080   0.080        0
   409  3053-11-297     2   24   21   0.450   0.010        0
   410  3053-16-349     2   24   21   0.450   0.010        0
   411  3053-22-37      2   24   21   0.450   0.010        0
   412  3053-32-85      2   24   21   0.450   0.010        0
   413  3053-42-351     2   24   21   0.450   0.010        0
   414  3053-48-348     2   24   21   0.450   0.010        0
   415  3053-55-353     2   24   21   0.450   0.010        0
   416  3053-61-5       2   24   21   0.450   0.010        0
   417  3053-65-361     2   24   21   0.450   0.010        0
   418  3053-71-355     2   24   21   0.450   0.010        0
   419  3050-55-353     2   24   21   0.490   0.010        0
   420  3050-61-5       2   24   21   0.490   0.010        0
   421  3050-65-361     2   24   21   0.490   0.010        0
   422  3050-71-355     2   24   21   0.490   0.010        0
   423  3076-37-33      3   24   22  -0.420   0.310        0
   424  3076-42-349     3   24   22  -0.420   0.310        0
   425  3076-48-342     3   24   22  -0.420   0.310        0
   426  3076-56-23      3   24   22  -0.420   0.310        0
   427  3076-61-60      3   24   22  -0.420   0.310        0
   428  3076-66-24      3   24   22  -0.420   0.310        0
   429  3077-55-354     3   23   17   0.450   0.480        0
   430  3077-61-5       3   23   17   0.450   0.480        0
   431  3077-66-20      3   23   17   0.450   0.480        0
   432  3077-71-355     3   23   17   0.450   0.480        0
   433  3065-48-348    -2   24   17  -0.210   0.440        0
   434  3021-1-107      2   26   18  -0.440   0.280        0
   435  3021-7-3        2   26   18  -0.440   0.280        0
   436  3020-7-3        3   26   18  -0.440   0.350        0
   437  3020-12-59      3   26   18  -0.440   0.350        0
   438  3020-16-314     3   26   18  -0.440   0.350        0
   439  3020-22-37      3   26   18  -0.440   0.350        0
   440  3020-27-31      3   26   18  -0.440   0.350        0
   441  2989-12-59      2   26   22   0.410  -0.480        0
   442  2995-16-313     1   26   26   0.230   0.070        0
   443  2995-22-37      2   26   26   0.230   0.070        0
   444  2995-27-31      2   26   26   0.230   0.070        0
   445  2995-32-85      2   26   26   0.230   0.070        0
   446  3201-48-300     3   17   32   0.140   0.060        0
   447  3201-55-321     3   17   32   0.140   0.060        0
   448  3201-60-312     3   17   32   0.140   0.060        0
   449  3201-65-363     3   17   32   0.140   0.060        0
   450  3201-71-10      3   17   32   0.140   0.060        0
   451  3202-48-300     2   17   32   0.140   0.060        0
   452  3202-55-321     2   17   32   0.140   0.060        0
   453  3202-60-312     2   17   32   0.140   0.060        0
   454  3202-65-363     2   17   32   0.140   0.060        0
   455  3202-71-10      2   17   32   0.140   0.060        0
   456  3200-21-335     3   18   36  -0.090   0.180        0
   457  3200-32-6       3   18   36  -0.090   0.180        0
   458  3200-36-351     3   18   36  -0.090   0.180        0
   459  3200-49-54      3   18   36  -0.090   0.180        0
   460  3200-56-24      3   18   36  -0.090   0.180        0
   461  3200-60-319     3   18   36  -0.090   0.180        0
   462  3200-65-298     3   18   36  -0.090   0.180        0
   463  3200-71-365     3   18   36  -0.090   0.180        0
   464  3154-1-337     -2   20   32   0.120  -0.340        0
   465  3154-6-286     -2   20   32   0.120  -0.340        0
   466  3154-11-298    -2   20   32   0.120  -0.340        0
   467  3154-16-358    -2   20   32   0.120  -0.340        0
   468  3154-21-343     2   20   32   0.120  -0.340        0
   469  3154-32-85      2   20   32   0.120  -0.340        0
   470  3154-37-33      2   20   32   0.120  -0.340        0
   471  3154-42-349     2   20   32   0.120  -0.340        0
   472  3150-48-337     2   20   32   0.160  -0.370        0
   473  3150-56-23      2   20   32   0.160  -0.370        0
   474  3150-60-319     2   20   32   0.160  -0.370        0
   475  3150-65-298     2   20   32   0.160  -0.370        0
   476  3150-71-11      2   20   32   0.160  -0.370        0
   477  3150-71-365     2   20   32   0.160  -0.370        0
   478  3158-12-85      2   20   32  -0.380  -0.140        0
   479  3158-16-342     2   20   32  -0.380  -0.140        0
   480  3158-21-346     2   20   32  -0.380  -0.140        0
   481  3158-56-25      2   20   32  -0.380  -0.140        0
   482  3158-61-55      2   20   32  -0.380  -0.140        0
   483  3158-66-19      2   20   32  -0.380  -0.140        0
   484  3179-8-1       -2   18   29   0.280   0.460        0
   485  3151-12-33      2   20   31   0.150  -0.410        0
   486  3151-16-342     2   20   31   0.150  -0.410        0
   487  3151-21-346     2   20   31   0.150  -0.410        0
   488  3151-56-23      2   20   31   0.150  -0.410        0
   489  3151-61-55      2   20   31   0.150  -0.410        0
   490  3151-66-18      2   20   31   0.150  -0.410        0
   491  3167-34-152     2   19   28   0.120  -0.260        0
   492  3103-38-3       2   22   29   0.100  -0.230        0
   493  3101-66-24     -2   22   29   0.180  -0.290        0
   494  3105-8-1       -2   22   31   0.180  -0.440        0
   495  3105-56-23      2   22   31   0.180  -0.440        0
   496  3105-61-55      2   22   31   0.180  -0.440        0
   497  3105-66-18      2   22   31   0.180  -0.440        0
   498  3142-12-1      -2   20   32   0.350   0.470        0
   499  3142-16-342    -2   20   32   0.350   0.470        0
   500  3142-56-24      2   20   32   0.350   0.470        0
   501  3142-61-55      2   20   32   0.350   0.470        0
   502  3142-66-19      2   20   32   0.350   0.470        0
   503  3138-21-346     2   20   32   0.390   0.470        0
   504  3138-56-24      2   20   32   0.390   0.470        0
   505  3138-61-55      2   20   32   0.390   0.470        0
   506  3138-66-19      2   20   32   0.390   0.470        0
   507  3119-48-337     2   21   32   0.190  -0.050        0
   508  3119-56-23      2   21   32   0.190  -0.050        0
   509  3119-61-60      2   21   32   0.190  -0.050        0
   510  3119-66-18      2   21   32   0.190  -0.050        0
   511  3130-2-305      1   21   32  -0.150   0.470        0
   512  3108-8-32      -2   22   33  -0.080  -0.200        0
   513  3104-56-26      2   22   34   0.070  -0.170        0
   514  3104-61-55      2   22   34   0.070  -0.170        0
   515  3104-66-19      2   22   34   0.070  -0.170        0
   516  3102-56-26     -2   22   34   0.110   0.000        0
   517  3102-61-55     -2   22   34   0.110   0.000        0
   518  3102-66-19     -2   22   34   0.110   0.000        0
   519  3140-48-300     3   20   35   0.350  -0.320        0
   520  3141-48-300     3   20   35   0.350  -0.320        0
   521  3061-66-19     -2   24   38   0.070  -0.470        0
   522  3085-1-337     -3   23   35   0.110   0.190        0
   523  3085-6-286     -3   23   35   0.110   0.190        0
   524  3085-11-361    -3   23   35   0.110   0.190        0
   525  3085-16-350    -3   23   35   0.110   0.190        0
   526  3085-21-346    -2   23   35   0.110   0.190        0
   527  3064-56-25      2   24   37  -0.050  -0.410        0
   528  3083-56-23     -2   23   34   0.150  -0.270        0
   529  3083-61-55     -2   23   34   0.150  -0.270        0
   530  3083-66-18     -2   23   34   0.150  -0.270        0
   531  3084-10-60     -2   23   32   0.140   0.080        0
   532  3084-48-341     2   23   32   0.140   0.080        0
   533  3084-56-23      2   23   32   0.140   0.080        0
   534  3084-61-55      2   23   32   0.140   0.080        0
   535  3084-66-18      2   23   32   0.140   0.080        0
   536  3081-48-341     2   23   32   0.180  -0.310        0
   537  3081-56-23      2   23   32   0.180  -0.310        0
   538  3081-61-55      2   23   32   0.180  -0.310        0
   539  3081-66-18      2   23   32   0.180  -0.310        0
   540  3079-1-365      1   23   32   0.370  -0.150        0
   541  3058-48-337     2   24   33   0.140  -0.400        0
   542  3058-56-23      2   24   33   0.140  -0.400        0
   543  3058-61-55      2   24   33   0.140  -0.400        0
   544  3058-66-18      2   24   33   0.140  -0.400        0
   545  3086-12-247    -2   23   31   0.100  -0.480        0
   546  3107-1-365      2   22   28  -0.050   0.480        0
   547  3107-11-334     2   22   28  -0.050   0.480        0
   548  3040-10-32      2   25   28   0.050   0.470        0
   549  3017-71-5       1   26   26  -0.310   0.490        0
   550  3017-71-365     1   26   26  -0.310   0.490        0
   551  3015-55-354     2   26   26  -0.270   0.490        0
   552  3015-71-5       2   26   26  -0.270   0.490        0
   553  3015-71-365     2   26   26  -0.270   0.490        0
   554  3054-10-32      2   24   31   0.330  -0.450        0
   555  3046-12-247     2   25   31  -0.370  -0.450        0
   556  3046-16-350     2   25   31  -0.370  -0.450        0
   557  3046-21-343     2   25   31  -0.370  -0.450        0
   558  3046-32-8       2   25   31  -0.370  -0.450        0
   559  3046-36-87      2   25   31  -0.370  -0.450        0
   560  3036-11-18     -2   25   31   0.170  -0.450        0
   561  3036-16-350    -2   25   31   0.170  -0.450        0
   562  3036-21-335    -2   25   31   0.170  -0.450        0
   563  3030-12-247    -2   25   33   0.250  -0.440        0
   564  3030-16-350    -2   25   33   0.250  -0.440        0
   565  3030-21-346    -2   25   33   0.250  -0.440        0
   566  3038-1-337     -3   25   35   0.140  -0.430        0
   567  3038-6-286     -3   25   35   0.140  -0.430        0
   568  3038-11-338    -3   25   35   0.140  -0.430        0
   569  3038-16-350    -3   25   35   0.140  -0.430        0
   570  3038-21-312    -3   25   35   0.140  -0.430        0
   571  3038-42-349    -3   25   35   0.140  -0.430        0
   572  3035-48-337    -2   25   35   0.140  -0.390        0
   573  3035-56-23     -2   25   35   0.140  -0.390        0
   574  3035-60-319    -2   25   35   0.140  -0.390        0
   575  3035-66-18     -2   25   35   0.140  -0.390        0
   576  3035-71-11     -2   25   35   0.140  -0.390        0
   577  3035-71-365    -2   25   35   0.140  -0.390        0
   578  3007-12-76     -3   26   35   0.090  -0.460        0
   579  3007-48-337    -2   26   35   0.090  -0.460        0
   580  3007-56-23     -2   26   35   0.090  -0.460        0
   581  3007-61-55      3   26   35   0.090  -0.460        0
   582  3007-66-18      3   26   35   0.090  -0.460        0
   583  3032-10-32     -3   25   36   0.220   0.260        0
   584  3032-48-337    -3   25   36   0.220   0.260        0
   585  3032-56-23     -3   25   36   0.220   0.260        0
   586  3032-61-55     -3   25   36   0.220   0.260        0
   587  3032-66-27     -3   25   36   0.220   0.260        0
   588  3006-56-23      2   26   36   0.100  -0.390        0
   589  3006-61-55      2   26   36   0.100  -0.390        0
   590  3006-66-18      2   26   36   0.100  -0.390        0
   591  3005-10-60      2   26   36   0.100   0.490        0
   592  3005-48-337     2   26   36   0.100   0.490        0
   593  3005-56-23      2   26   36   0.100   0.490        0
   594  3005-61-55      2   26   36   0.100   0.490        0
   595  3005-66-18      2   26   36   0.100   0.490        0
   596  3002-56-23      1   26   37   0.140   0.140        0
   597  3002-61-55      1   26   37   0.140   0.140        0
   598  3002-66-19      1   26   37   0.140   0.140        0
   599  3182-48-337     2   18   29   0.200  -0.380        0
   600  3182-56-19      2   18   29   0.200  -0.380        0
   601  3182-61-60      2   18   29   0.200  -0.380        0
   602  3182-66-27      2   18   29   0.200  -0.380        0
   603  3155-8-1        2   20   29   0.190  -0.390        0
   604  3155-48-337     2   20   29   0.190  -0.390        0
   605  3155-56-19      2   20   29   0.190  -0.390        0
   606  3155-66-24      2   20   29   0.190  -0.390        0
   607  2695-43-60      2   26   26  -0.340   0.490        0
   608  2695-55-354     2   26   26  -0.340   0.490        0
   609  2695-61-7       2   26   26  -0.340   0.490        0
   610  2695-65-361     2   26   26  -0.340   0.490        0
   611  2695-71-5       2   26   26  -0.340   0.490        0
   612  2695-71-365     2   26   26  -0.340   0.490        0
   613  3037-48-364     2   25   39   0.140  -0.270        0
   614  3009-56-25      2   26   40   0.030   0.450        0
   615  3009-61-55      2   26   40   0.030   0.450        0
   616  3001-56-25      2   26   41   0.140  -0.460        0
   617  3001-61-55      2   26   41   0.140  -0.460        0
   618  3004-17-1       3   26   46   0.110   0.130        0
   619  3004-22-1       3   26   46   0.110   0.130        0
   620  3004-27-32      3   26   46   0.110   0.130        0
   621  3004-37-36      3   26   46   0.110   0.130        0
   622  3004-66-24      3   26   46   0.110   0.130        0
   623  3004-71-57      3   26   46   0.110   0.130        0
   624  3010-48-334     2   26   51   0.000   0.120        0
   625  3010-56-27      2   26   51   0.000   0.120        0
   626  3039-42-364     3   25   56   0.080  -0.010        0
   627  3039-48-335     3   25   56   0.080  -0.010        0
   628  3039-56-25      3   25   56   0.080  -0.010        0
   629  3019-31-297     2   26   55  -0.340   0.150        0
   630  2997-36-32      2   26   56   0.230  -0.360        0
   631  2997-43-41      2   26   56   0.230  -0.360        0
   632  2997-48-334     2   26   56   0.230  -0.360        0
   633  3012-31-339     2   26   57  -0.080  -0.130        0
   634  3016-8-222      2   26   58  -0.270  -0.350        0
   635  3016-11-53      2   26   58  -0.270  -0.350        0
   636  3014-42-365     2   26   58  -0.110  -0.350        0
   637  3014-48-334     2   26   58  -0.110  -0.350        0
   638  3014-56-24      2   26   58  -0.110  -0.350        0
   639  3014-61-59      2   26   58  -0.110  -0.350        0
   640  3014-66-25      2   26   58  -0.110  -0.350        0
   641  3014-71-54      2   26   58  -0.110  -0.350        0
   642  3013-43-6       3   26   58  -0.040   0.300        0
   643  3013-48-335     3   26   58  -0.040   0.300        0
   644  3013-56-26      3   26   58  -0.040   0.300        0
   645  3013-66-28      3   26   58  -0.040   0.300        0
   646  3041-66-33      3   25   62   0.040   0.220        0
   647  3041-71-61      3   25   62   0.040   0.220        0
   648  3055-11-56      3   24   61   0.320  -0.330        0
   649  3055-43-6       3   24   61   0.320  -0.330        0
   650  3055-48-335     3   24   61   0.320  -0.330        0
   651  3055-56-19      3   24   61   0.320  -0.330        0
   652  3251-48-334     2   15   71  -0.290   0.240        0
   653  3246-56-26      2   15   71  -0.140   0.240        0
   654  3248-16-116     2   15   71  -0.260   0.240        0
   655  3248-21-116     2   15   71  -0.260   0.240        0
   656  3248-26-125     2   15   71  -0.260   0.240        0
   657  3248-31-111     2   15   71  -0.260   0.240        0
   658  3248-37-36      2   15   71  -0.260   0.240        0
   659  3248-43-81      2   15   71  -0.260   0.240        0
   660  3248-48-334     2   15   71  -0.260   0.240        0
   661  3248-56-26      2   15   71  -0.260   0.240        0
   662  3248-71-61      2   15   71  -0.260   0.240        0
   663  3242-56-26     -2   15   71  -0.030  -0.060        0
   664  3241-61-61      2   15   71   0.200   0.400        0
   665  3241-66-18      2   15   71   0.200   0.400        0
   666  3241-71-61      2   15   71   0.200   0.400        0
   667  3235-71-64      2   15   71   0.390  -0.090        0
   668  3221-66-33      2   16   69  -0.180   0.230        0
   669  3262-42-335     2   14   68  -0.060  -0.490        0
   670  3262-49-8       2   14   68  -0.060  -0.490        0
   671  3262-55-342     2   14   68  -0.060  -0.490        0
   672  3262-61-35      2   14   68  -0.060  -0.490        0
   673  3262-66-33      2   14   68  -0.060  -0.490        0
   674  3262-71-323     2   14   68  -0.060  -0.490        0
   675  3256-27-125    -2   15   67  -0.440  -0.300        0
   676  3256-37-36     -2   15   67  -0.440  -0.300        0
   677  3256-48-356    -2   15   67  -0.440  -0.300        0
   678  3256-55-342    -2   15   67  -0.440  -0.300        0
   679  3256-66-33     -2   15   67  -0.440  -0.300        0
   680  3256-71-323    -2   15   67  -0.440  -0.300        0
   681  3252-43-81      2   15   67  -0.330  -0.470        0
   682  3252-48-336     2   15   67  -0.330  -0.470        0
   683  3252-56-27      2   15   67  -0.330  -0.470        0
   684  3252-60-323     2   15   67  -0.330  -0.470        0
   685  3252-65-299     2   15   67  -0.330  -0.470        0
   686  3252-71-365     2   15   67  -0.330  -0.470        0
   687  3253-55-342     3   15   67  -0.410  -0.300        0
   688  3253-60-335     3   15   67  -0.410  -0.300        0
   689  3253-66-34      3   15   67  -0.410  -0.300        0
   690  3253-71-323     3   15   67  -0.410  -0.300        0
   691  3263-16-299    -2   16   67  -0.100  -0.240        0
   692  3263-26-127    -2   16   67  -0.100  -0.240        0
   693  3263-43-60     -2   16   67  -0.100  -0.240        0
   694  3263-48-356    -2   16   67  -0.100  -0.240        0
   695  3263-56-24     -2   16   67  -0.100  -0.240        0
   696  3263-66-33     -2   16   67  -0.100  -0.240        0
   697  3263-71-365    -2   16   67  -0.100  -0.240        0
   698  3224-56-27      2   16   68  -0.370   0.380        0
   699  3209-33-314     2   17   68  -0.380  -0.430        0
   700  3210-43-81     -2   17   67  -0.300  -0.040        0
   701  3210-48-336    -2   17   67  -0.300  -0.040        0
   702  3210-56-26     -2   17   67  -0.300  -0.040        0
   703  3195-33-32     -2   18   67  -0.420  -0.500        0
   704  3180-34-152    -2   18   67   0.080   0.310        0
   705  3184-66-28      2   18   68   0.080  -0.230        0
   706  3184-71-62      2   18   68   0.080  -0.230        0
   707  3186-66-28      2   18   68   0.040  -0.230        0
   708  3186-71-60      2   18   68   0.040  -0.230        0
   709  3183-66-31      2   18   68   0.080   0.450        0
   710  3207-43-7       2   17   70  -0.270   0.430        0
   711  3207-48-334     2   17   70  -0.270   0.430        0
   712  3207-56-26      2   17   70  -0.270   0.430        0
   713  3190-43-7       2   18   69  -0.120  -0.390        0
   714  3190-48-336     2   18   69  -0.120  -0.390        0
   715  3190-56-25      2   18   69  -0.120  -0.390        0
   716  3194-71-62      2   18   70  -0.430   0.200        0
   717  3192-66-34      2   18   70  -0.380   0.170        0
   718  3192-71-60      2   18   70  -0.380   0.170        0
   719  3187-43-7      -2   18   70   0.000  -0.160        0
   720  3187-48-334    -2   18   70   0.000  -0.160        0
   721  3203-71-62      2   17   71  -0.040  -0.480        0
   722  3165-71-62      2   19   69   0.480   0.360        0
   723  3148-43-7      -2   20   69   0.260  -0.420        0
   724  3157-71-62      2   20   69  -0.050   0.340        0
   725  3152-71-62      2   20   69   0.220   0.290        0
   726  3169-43-8       3   19   67   0.110   0.440        0
   727  3169-48-336     3   19   67   0.110   0.440        0
   728  3169-66-34      3   19   67   0.110   0.440        0
   729  3169-71-61      2   19   67   0.110   0.440        0
   730  3168-43-7      -2   19   66  -0.310   0.240        0
   731  3168-56-26     -2   19   66  -0.310   0.240        0
   732  3168-66-34     -2   19   66  -0.310   0.240        0
   733  3156-27-289    -2   20   67  -0.120   0.380        0
   734  3144-43-7      -2   20   67   0.330  -0.070        0
   735  3144-56-25     -2   20   67   0.330  -0.070        0
   736  3144-66-34     -2   20   67   0.330  -0.070        0
   737  3144-71-60     -2   20   67   0.330  -0.070        0
   738  3110-43-5       2   22   67  -0.290  -0.140        0
   739  3110-48-335     2   22   67  -0.290  -0.140        0
   740  3136-43-7      -2   20   69   0.490   0.330        0
   741  3136-48-334    -2   20   69   0.490   0.330        0
   742  3136-56-26     -2   20   69   0.490   0.330        0
   743  3136-66-35     -2   20   69   0.490   0.330        0
   744  3136-71-61     -2   20   69   0.490   0.330        0
   745  3093-5-82       2   23   68  -0.290  -0.200        0
   746  3093-6-97       2   23   68  -0.290  -0.200        0
   747  3093-16-133     2   23   68  -0.290  -0.200        0
   748  3093-26-124     2   23   68  -0.290  -0.200        0
   749  3093-37-37      2   23   68  -0.290  -0.200        0
   750  3093-43-7       2   23   68  -0.290  -0.200        0
   751  3094-48-337    -2   20   64   0.370   0.300        0
   752  3094-66-33     -2   20   64   0.370   0.300        0
   753  3094-71-61     -2   20   64   0.370   0.300        0
   754  3057-48-337     2   24   63   0.240   0.000        0
   755  3057-56-25      2   24   63   0.240   0.000        0
   756  3011-48-337    -2   26   63  -0.110   0.040        0
   757  3011-66-33     -2   26   63  -0.110   0.040        0
   758  3011-71-61     -2   26   63  -0.110   0.040        0
   759  3026-48-337    -2   25   64   0.460  -0.250        0
   760  3026-56-25     -2   25   64   0.460  -0.250        0
   761  2999-16-361    -2   26   65   0.270  -0.410        0
   762  2999-22-31     -2   26   65   0.270  -0.410        0
   763  2999-27-11     -2   26   65   0.270  -0.410        0
   764  2999-31-351    -2   26   65   0.270  -0.410        0
   765  2999-37-343    -2   26   65   0.270  -0.410        0
   766  2999-56-25     -2   26   65   0.270  -0.410        0
   767  2999-66-33     -2   26   65   0.270  -0.410        0
   768  2999-71-61     -2   26   65   0.270  -0.410        0
   769  2994-43-5       2   26   65   0.270  -0.050        0
   770  2994-56-25      2   26   65   0.270  -0.050        0
   771  3029-48-336     3   25   67   0.420  -0.460        0
   772  3029-56-26      3   25   67   0.420  -0.460        0
   773  3029-66-33      3   25   67   0.420  -0.460        0
   774  3008-48-336     2   26   69   0.030  -0.250        0
   775  3008-56-26      2   26   69   0.030  -0.250        0
   776  2963-1-107      2   28   22  -0.140   0.270        0
   777  2948-17-4       2   28   22   0.360  -0.120        0
   778  2982-48-348     3   27   20   0.470  -0.300        0
   779  2982-55-354     3   27   20   0.470  -0.300        0
   780  2982-61-7       3   27   20   0.470  -0.300        0
   781  2982-66-55      3   27   20   0.470  -0.300        0
   782  2982-71-355     3   27   20   0.470  -0.300        0
   783  2968-71-365     2   28   20  -0.330   0.290        0
   784  2951-42-351     2   28   20   0.470  -0.430        0
   785  2951-48-348     2   28   20   0.470  -0.430        0
   786  2951-55-354     2   28   20   0.470  -0.430        0
   787  2951-61-5       2   28   20   0.470  -0.430        0
   788  2951-66-20      2   28   20   0.470  -0.430        0
   789  2951-71-355     2   28   20   0.470  -0.430        0
   790  2950-12-335     3   28   20   0.470   0.060        0
   791  2950-55-354     3   28   20   0.470   0.060        0
   792  2945-1-107      2   29   18  -0.270   0.470        0
   793  2945-7-3        2   29   18  -0.270   0.470        0
   794  2945-10-320     2   29   18  -0.270   0.470        0
   795  2902-42-351     2   30   20   0.460  -0.180        0
   796  2902-48-348     2   30   20   0.460  -0.180        0
   797  2902-55-354     2   30   20   0.460  -0.180        0
   798  2902-61-5       2   30   20   0.460  -0.180        0
   799  2902-66-20      2   30   20   0.460  -0.180        0
   800  2902-71-355     2   30   20   0.460  -0.180        0
   801  2906-12-332     3   30   20   0.420   0.380        0
   802  2906-17-4      -2   30   20   0.420   0.380        0
   803  2906-22-34     -2   30   20   0.420   0.380        0
   804  2906-32-85      3   30   20   0.420   0.380        0
   805  2906-37-33     -2   30   20   0.420   0.380        0
   806  2906-48-365    -2   30   20   0.420   0.380        0
   807  2906-55-354    -2   30   20   0.420   0.380        0
   808  2906-61-5      -2   30   20   0.420   0.380        0
   809  2906-66-20     -2   30   20   0.420   0.380        0
   810  2906-71-365    -2   30   20   0.420   0.380        0
   811  2922-16-313     2   29   23   0.430  -0.120        0
   812  2922-22-34      2   29   23   0.430  -0.120        0
   813  2922-27-13      2   29   23   0.430  -0.120        0
   814  2559-17-6      -3   29   25   0.480  -0.240        0
   815  2559-42-351    -2   29   25   0.480  -0.240        0
   816  2559-48-348    -2   29   25   0.480  -0.240        0
   817  2559-56-3      -2   29   25   0.480  -0.240        0
   818  2559-66-20     -3   29   25   0.480  -0.240        0
   819  2559-71-365    -3   29   25   0.480  -0.240        0
   820  2920-1-109      2   29   19   0.500  -0.110        0
   821  2901-42-351     2   30   25   0.400  -0.080        0
   822  2901-55-355     2   30   25   0.400  -0.080        0
   823  2901-61-5       2   30   25   0.400  -0.080        0
   824  2901-66-20      2   30   25   0.400  -0.080        0
   825  2901-71-365     2   30   25   0.400  -0.080        0
   826  2905-17-6      -2   30   25   0.430  -0.080        0
   827  2905-22-34     -2   30   25   0.430  -0.080        0
   828  2905-42-351     2   30   25   0.430  -0.080        0
   829  2905-71-50     -2   30   25   0.430  -0.080        0
   830  2905-71-365    -2   30   25   0.430  -0.080        0
   831  2907-42-351     3   30   25   0.210  -0.080        0
   832  2907-48-348     3   30   25   0.210  -0.080        0
   833  2907-55-355     3   30   25   0.210  -0.080        0
   834  2907-61-5       3   30   25   0.210  -0.080        0
   835  2907-66-20      3   30   25   0.210  -0.080        0
   836  2907-71-365     2   30   25   0.210  -0.080        0
   837  2900-17-6      -2   30   26   0.440  -0.140        0
   838  2900-56-20      2   30   26   0.440  -0.140        0
   839  2900-66-26      2   30   26   0.440  -0.140        0
   840  2874-3-290      2   31   23   0.420  -0.390        0
   841  2838-3-1        2   32   23   0.340  -0.390        0
   842  2809-16-354    -2   33   18   0.480   0.160        0
   843  2788-1-105      2   34   18   0.240   0.160        0
   844  2788-7-3        2   34   18   0.240   0.160        0
   845  2788-11-311     2   34   18   0.240   0.160        0
   846  2780-12-173     3   34   18   0.470   0.410        0
   847  2780-16-354     3   34   18   0.470   0.410        0
   848  2780-37-33      3   34   18   0.470   0.410        0
   849  2779-16-354    -2   34   20   0.480   0.040        0
   850  2779-22-34     -2   34   20   0.480   0.040        0
   851  2777-16-354     2   34   24   0.410  -0.030        0
   852  2787-16-335    -2   34   24   0.410   0.000        0
   853  2787-22-34      2   34   24   0.410   0.000        0
   854  2787-34-351     2   34   24   0.410   0.000        0
   855  2787-56-25      2   34   24   0.410   0.000        0
   856  2787-61-52      2   34   24   0.410   0.000        0
   857  2787-66-25      2   34   24   0.410   0.000        0
   858  2783-17-6      -2   34   25   0.450   0.400        0
   859  2783-56-25      2   34   25   0.450   0.400        0
   860  2783-66-20     -2   34   25   0.450   0.400        0
   861  2783-71-365    -2   34   25   0.450   0.400        0
   862  2790-66-20     -2   34   25   0.450   0.300        0
   863  2790-71-365    -2   34   25   0.450   0.300        0
   864  2745-16-354    -2   35   24   0.100   0.390        0
   865  2745-66-20     -2   35   24   0.100   0.390        0
   866  2745-71-365    -2   35   24   0.100   0.390        0
   867  2775-1-86       2   35   23  -0.480  -0.070        0
   868  2775-7-68       2   35   23  -0.480  -0.070        0
   869  2731-48-348    -2   35   24   0.480   0.360        0
   870  2731-55-354    -2   35   24   0.480   0.360        0
   871  2731-61-5      -2   35   24   0.480   0.360        0
   872  2731-66-20     -2   35   24   0.480   0.360        0
   873  2731-71-365    -2   35   24   0.480   0.360        0
   874  2771-22-21      2   35   21  -0.410  -0.440        0
   875  2718-17-6      -2   36   22  -0.140   0.280        0
   876  2718-27-13     -2   36   22  -0.140   0.280        0
   877  2769-56-26      3   34   16   0.460   0.040        0
   878  2769-61-55      3   34   16   0.460   0.040        0
   879  2769-66-26      3   34   16   0.460   0.040        0
   880  2758-7-344      3   35   15  -0.120  -0.420        0
   881  2675-48-348     3   37   15   0.100   0.130        0
   882  2675-61-4       3   37   15   0.100   0.130        0
   883  2675-66-20      3   37   15   0.100   0.130        0
   884  2675-71-365     3   37   15   0.100   0.130        0
   885  2637-42-351     3   38   16   0.370  -0.200        0
   886  2637-48-349     3   38   16   0.370  -0.200        0
   887  2637-55-355     3   38   16   0.370  -0.200        0
   888  2637-61-4       3   38   16   0.370  -0.200        0
   889  2637-66-51      3   38   16   0.370  -0.200        0
   890  2637-71-365     3   38   16   0.370  -0.200        0
   891  2641-16-355    -2   38   18   0.450   0.300        0
   892  2641-56-25     -2   38   18   0.450   0.300        0
   893  2641-61-53     -2   38   18   0.450   0.300        0
   894  2641-66-26     -2   38   18   0.450   0.300        0
   895  2640-42-351     3   38   19   0.420   0.050        0
   896  2640-48-348     3   38   19   0.420   0.050        0
   897  2640-55-355     3   38   19   0.420   0.050        0
   898  2640-61-4       3   38   19   0.420   0.050        0
   899  2640-66-20      3   38   19   0.420   0.050        0
   900  2640-71-4       3   38   19   0.420   0.050        0
   901  2640-71-365     3   38   19   0.420   0.050        0
   902  2636-42-351     3   38   19   0.380   0.150        0
   903  2636-48-348     3   38   19   0.380   0.150        0
   904  2636-55-355     3   38   19   0.380   0.150        0
   905  2636-61-4       3   38   19   0.380   0.150        0
   906  2636-66-20      3   38   19   0.380   0.150        0
   907  2636-71-5       3   38   19   0.380   0.150        0
   908  2636-71-365     3   38   19   0.380   0.150        0
   909  2639-12-178    -2   38   20   0.380   0.350        0
   910  2639-16-354    -2   38   20   0.380   0.350        0
   911  2639-42-351    -2   38   20   0.380   0.350        0
   912  2639-48-348    -2   38   20   0.380   0.350        0
   913  2639-71-50     -2   38   20   0.380   0.350        0
   914  2639-71-365    -2   38   20   0.380   0.350        0
   915  2654-56-25      3   38   21   0.150  -0.260        0
   916  2654-61-52      3   38   21   0.150  -0.260        0
   917  2978-1-364      1   27   38   0.130  -0.180        0
   918  2978-4-93       1   27   38   0.130  -0.180        0
   919  2964-48-300     3   28   39  -0.220  -0.370        0
   920  2964-55-321     3   28   39  -0.220  -0.370        0
   921  2964-60-313     3   28   39  -0.220  -0.370        0
   922  2964-65-364     3   28   39  -0.220  -0.370        0
   923  2964-71-349     3   28   39  -0.220  -0.370        0
   924  2965-71-350     2   28   39  -0.220  -0.370        0
   925  2985-17-5       1   27   31  -0.450   0.460        0
   926  2985-56-24      2   27   31  -0.450   0.460        0
   927  2985-61-56      2   27   31  -0.450   0.460        0
   928  2985-66-18      2   27   31  -0.450   0.460        0
   929  2913-56-23      2   30   28   0.210  -0.480        0
   930  2921-1-86       2   29   29   0.410  -0.080        0
   931  2921-7-3        2   29   29   0.410  -0.080        0
   932  2921-10-320     2   29   29   0.410  -0.080        0
   933  2921-12-361     2   29   29   0.410  -0.080        0
   934  2938-56-26      2   29   33   0.150  -0.410        0
   935  2938-61-59      2   29   33   0.150  -0.410        0
   936  2938-66-20      2   29   33   0.150  -0.410        0
   937  2935-22-34      2   29   32   0.230  -0.360        0
   938  2935-27-20      2   29   32   0.230  -0.360        0
   939  2935-56-24      2   29   32   0.230  -0.360        0
   940  2935-61-56      2   29   32   0.230  -0.360        0
   941  2935-66-19      2   29   32   0.230  -0.360        0
   942  2943-48-275     3   29   34  -0.230   0.440        0
   943  2944-48-275     2   29   34  -0.230   0.440        0
   944  2936-56-24     -2   29   38   0.120   0.490        0
   945  2936-61-55     -2   29   38   0.120   0.490        0
   946  2937-17-5      -2   29   37   0.120   0.130        0
   947  2937-22-34     -2   29   37   0.120   0.130        0
   948  2937-32-85     -2   29   37   0.120   0.130        0
   949  2937-42-349    -2   29   37   0.120   0.130        0
   950  2937-48-341    -2   29   37   0.120   0.130        0
   951  2937-56-24     -2   29   37   0.120   0.130        0
   952  2937-65-302    -2   29   37   0.120   0.130        0
   953  2915-12-6      -2   30   39  -0.380  -0.380        0
   954  2915-17-5      -2   30   39  -0.380  -0.380        0
   955  2915-56-24     -2   30   39  -0.380  -0.380        0
   956  2915-61-56     -2   30   39  -0.380  -0.380        0
   957  2915-66-19     -2   30   39  -0.380  -0.380        0
   958  2863-48-275     3   32   35  -0.130  -0.240        0
   959  2864-48-275     2   32   35  -0.130  -0.240        0
   960  2885-17-5       2   31   34  -0.120   0.110        0
   961  2885-56-24      2   31   34  -0.120   0.110        0
   962  2885-61-56      2   31   34  -0.120   0.110        0
   963  2867-17-6       2   32   33  -0.400  -0.390        0
   964  2867-21-335     2   32   33  -0.400  -0.390        0
   965  2867-56-24      2   32   33  -0.400  -0.390        0
   966  2867-61-56      2   32   33  -0.400  -0.390        0
   967  2867-66-19      2   32   33  -0.400  -0.390        0
   968  2887-56-24     -2   31   30   0.100  -0.110        0
   969  2887-66-19     -2   31   30   0.100  -0.110        0
   970  2886-17-6       2   31   31   0.100  -0.430        0
   971  2886-56-24      2   31   31   0.100  -0.430        0
   972  2886-61-56      2   31   31   0.100  -0.430        0
   973  2886-66-27      2   31   31   0.100  -0.430        0
   974  2850-1-86       1   32   29   0.130  -0.410        0
   975  2850-7-4        1   32   29   0.130  -0.410        0
   976  2850-12-361     1   32   29   0.130  -0.410        0
   977  2837-12-284    -2   32   31   0.210  -0.370        0
   978  2837-16-354     2   32   31   0.210  -0.370        0
   979  2837-22-34      2   32   31   0.210  -0.370        0
   980  2837-32-85      2   32   31   0.210  -0.370        0
   981  2837-37-34      2   32   31   0.210  -0.370        0
   982  2837-42-349     2   32   31   0.210  -0.370        0
   983  2837-48-341     2   32   31   0.210  -0.370        0
   984  2837-56-24      2   32   31   0.210  -0.370        0
   985  2837-60-319     2   32   31   0.210  -0.370        0
   986  2837-65-298    -2   32   31   0.210  -0.370        0
   987  2837-71-11     -2   32   31   0.210  -0.370        0
   988  2837-71-365    -2   32   31   0.210  -0.370        0
   989  2818-17-6       2   33   31   0.170  -0.470        0
   990  2818-56-24      2   33   31   0.170  -0.470        0
   991  2818-61-52      2   33   31   0.170  -0.470        0
   992  2818-66-25      2   33   31   0.170  -0.470        0
   993  2800-48-348     2   34   31  -0.070  -0.470        0
   994  2800-55-355     2   34   31  -0.070  -0.470        0
   995  2800-61-7       2   34   31  -0.070  -0.470        0
   996  2800-65-341     2   34   31  -0.070  -0.470        0
   997  2800-71-50      2   34   31  -0.070  -0.470        0
   998  2800-71-365     2   34   31  -0.070  -0.470        0
   999  2786-56-24      2   34   31   0.270  -0.440        0
  1000  2786-61-52      2   34   31   0.270  -0.440        0
  1001  2786-66-25      2   34   31   0.270  -0.440        0
  1002  2770-1-86       2   35   31  -0.380  -0.440        0
  1003  2770-7-4        2   35   31  -0.380  -0.440        0
  1004  2770-12-361     2   35   31  -0.380  -0.440        0
  1005  2744-56-24      2   35   30   0.150  -0.190        0
  1006  2740-56-24      2   35   30   0.190   0.010        0
  1007  2741-17-6       2   35   30   0.190  -0.410        0
  1008  2694-1-86       2   36   31   0.460  -0.180        0
  1009  2694-5-67       2   36   31   0.460  -0.180        0
  1010  2643-2-60       2   38   33   0.300  -0.170        0
  1011  2643-6-284      2   38   33   0.300  -0.170        0
  1012  2643-11-275     2   38   33   0.300  -0.170        0
  1013  2933-56-23      2   29   28   0.180  -0.410        0
  1014  2851-16-354     2   32   28   0.010  -0.450        0
  1015  2851-65-341     2   32   28   0.010  -0.450        0
  1016  2851-71-50      2   32   28   0.010  -0.450        0
  1017  2851-71-365     2   32   28   0.010  -0.450        0
  1018  2854-65-341     2   32   28   0.160   0.230        0
  1019  2854-71-50      2   32   28   0.160   0.230        0
  1020  2854-71-365     2   32   28   0.160   0.230        0
  1021  2796-61-52      2   34   28   0.190   0.420        0
  1022  2796-66-33      2   34   28   0.190   0.420        0
  1023  2712-42-351     2   36   28   0.180  -0.330        0
  1024  2712-48-348     2   36   28   0.180  -0.330        0
  1025  2712-56-27      2   36   28   0.180  -0.330        0
  1026  2712-61-7       2   36   28   0.180  -0.330        0
  1027  2712-66-55      2   36   28   0.180  -0.330        0
  1028  2712-71-365     2   36   28   0.180  -0.330        0
  1029  2709-55-355     3   36   28   0.110   0.090        0
  1030  2709-61-7       3   36   28   0.110   0.090        0
  1031  2709-65-341     3   36   28   0.110   0.090        0
  1032  2709-71-365     3   36   28   0.110   0.090        0
  1033  2702-42-351     2   36   28   0.140   0.090        0
  1034  2702-48-348     2   36   28   0.140   0.090        0
  1035  2702-56-27      2   36   28   0.140   0.090        0
  1036  2702-61-7       2   36   28   0.140   0.090        0
  1037  2702-65-341     2   36   28   0.140   0.090        0
  1038  2702-71-365     2   36   28   0.140   0.090        0
  1039  2711-39-335     2   36   29   0.150  -0.460        0
  1040  2711-56-26      2   36   29   0.150  -0.460        0
  1041  2711-61-7       2   36   29   0.150  -0.460        0
  1042  2711-65-341     2   36   29   0.150  -0.460        0
  1043  2711-71-365     2   36   29   0.150  -0.460        0
  1044  2713-42-351     2   36   29  -0.010  -0.360        0
  1045  2713-56-26      2   36   29  -0.010  -0.360        0
  1046  2713-61-7       2   36   29  -0.010  -0.360        0
  1047  2713-65-341     2   36   29  -0.010  -0.360        0
  1048  2713-71-365     2   36   29  -0.010  -0.360        0
  1049  2682-56-23      2   37   32  -0.230   0.340        0
  1050  2682-61-53      2   37   32  -0.230   0.340        0
  1051  2682-66-28      2   37   32  -0.230   0.340        0
  1052  2866-12-332     2   32   26  -0.380   0.440        0
  1053  2866-17-6       2   32   26  -0.380   0.440        0
  1054  2998-43-6       2   26   49   0.230   0.140        0
  1055  3416-56-26      2   27   42  -0.090  -0.030        0
  1056  3416-61-55      2   27   42  -0.090  -0.030        0
  1057  3416-66-19      2   27   42  -0.090  -0.030        0
  1058  2986-8-305      1   27   41  -0.400  -0.290        0
  1059  2960-1-365      1   28   41   0.060  -0.260        0
  1060  2961-56-25     -2   28   42   0.210   0.070        0
  1061  2961-61-59     -2   28   42   0.210   0.070        0
  1062  2961-66-19     -2   28   42   0.210   0.070        0
  1063  2957-56-25     -2   28   42   0.210   0.490        0
  1064  2957-61-59     -2   28   42   0.210   0.490        0
  1065  2988-1-51       1   27   40  -0.440  -0.500        0
  1066  2984-8-213      1   27   40  -0.210  -0.500        0
  1067  2971-7-60       1   27   40   0.440   0.480        0
  1068  2969-56-25     -2   27   40   0.440   0.440        0
  1069  2969-61-55     -2   27   40   0.440   0.440        0
  1070  2969-66-19     -2   27   40   0.440   0.440        0
  1071  2976-56-25      1   27   40   0.370   0.120        0
  1072  2976-61-55      1   27   40   0.370   0.120        0
  1073  2976-66-19      1   27   40   0.370   0.120        0
  1074  2972-56-25      2   28   40  -0.480  -0.010        0
  1075  2972-66-19      2   28   40  -0.480  -0.010        0
  1076  2919-21-335     2   30   39  -0.340  -0.310        0
  1077  2946-56-25     -2   29   42  -0.410   0.070        0
  1078  2946-66-19     -2   29   42  -0.410   0.070        0
  1079  2927-22-17     -2   29   42   0.090  -0.390        0
  1080  2927-27-32     -2   29   42   0.090  -0.390        0
  1081  2955-8-276     -2   28   41   0.250  -0.390        0
  1082  2955-12-40     -2   28   41   0.250  -0.390        0
  1083  2955-17-1      -2   28   41   0.250  -0.390        0
  1084  2955-27-32     -2   28   41   0.250  -0.390        0
  1085  2955-32-12     -2   28   41   0.250  -0.390        0
  1086  2955-37-1      -2   28   41   0.250  -0.390        0
  1087  2926-56-26      1   29   42   0.440   0.130        0
  1088  2926-61-59      1   29   42   0.440   0.130        0
  1089  2942-1-365      1   29   43  -0.210   0.230        0
  1090  2916-56-25      1   30   43  -0.220  -0.290        0
  1091  2916-61-59      1   30   43  -0.220  -0.290        0
  1092  2916-66-20      1   30   43  -0.220  -0.290        0
  1093  2941-42-364     2   29   47  -0.210  -0.160        0
  1094  2941-48-335     2   29   47  -0.210  -0.160        0
  1095  2941-56-23      2   29   47  -0.210  -0.160        0
  1096  2941-61-59      2   29   47  -0.210  -0.160        0
  1097  2941-66-26      2   29   47  -0.210  -0.160        0
  1098  2941-71-54      2   29   47  -0.210  -0.160        0
  1099  3185-34-152     2   30   48  -0.440   0.460        0
  1100  2925-42-364     2   29   48   0.440  -0.160        0
  1101  2925-48-335     2   29   48   0.440  -0.160        0
  1102  2925-56-23      2   29   48   0.440  -0.160        0
  1103  2925-66-26      2   29   48   0.440  -0.160        0
  1104  2925-71-54      2   29   48   0.440  -0.160        0
  1105  2954-42-363     2   28   50   0.410  -0.370        0
  1106  2954-56-23      2   28   50   0.410  -0.370        0
  1107  2954-61-59      2   28   50   0.410  -0.370        0
  1108  2954-66-27      2   28   50   0.410  -0.370        0
  1109  2889-42-364     2   31   49  -0.180  -0.310        0
  1110  2889-48-336     2   31   49  -0.180  -0.310        0
  1111  2889-56-24      2   31   49  -0.180  -0.310        0
  1112  2880-22-18      2   31   50   0.240  -0.210        0
  1113  2880-27-32      2   31   50   0.240  -0.210        0
  1114  2880-38-1       2   31   50   0.240  -0.210        0
  1115  2880-42-363     2   31   50   0.240  -0.210        0
  1116  2893-1-274      2   31   48  -0.330   0.490        0
  1117  2893-4-279      2   31   48  -0.330   0.490        0
  1118  2893-5-285      2   31   48  -0.330   0.490        0
  1119  2893-12-46      2   31   48  -0.330   0.490        0
  1120  2893-17-19      2   31   48  -0.330   0.490        0
  1121  2893-22-1       2   31   48  -0.330   0.490        0
  1122  2893-27-32      2   31   48  -0.330   0.490        0
  1123  2893-32-14      2   31   48  -0.330   0.490        0
  1124  2893-38-1       2   31   48  -0.330   0.490        0
  1125  2896-42-363     2   31   47  -0.370   0.360        0
  1126  2853-42-364     2   32   49   0.010  -0.440        0
  1127  2853-48-336     2   32   49   0.010  -0.440        0
  1128  2853-56-24      2   32   49   0.010  -0.440        0
  1129  2853-61-59      2   32   49   0.010  -0.440        0
  1130  2853-66-27      2   32   49   0.010  -0.440        0
  1131  2853-71-55      2   32   49   0.010  -0.440        0
  1132  2858-42-363     1   32   46   0.080  -0.430        0
  1133  2858-48-336     1   32   46   0.080  -0.430        0
  1134  2858-56-24      1   32   46   0.080  -0.430        0
  1135  2858-61-59      1   32   46   0.080  -0.430        0
  1136  2858-66-27      1   32   46   0.080  -0.430        0
  1137  2858-71-62      1   32   46   0.080  -0.430        0
  1138  2904-2-1       -2   30   43   0.360   0.460        0
  1139  2892-1-360     -2   31   43  -0.260   0.460        0
  1140  2892-7-65      -2   31   43  -0.260   0.460        0
  1141  2892-11-334    -2   31   43  -0.260   0.460        0
  1142  2892-16-318    -2   31   43  -0.260   0.460        0
  1143  2892-22-34     -2   31   43  -0.260   0.460        0
  1144  2892-27-32     -2   31   43  -0.260   0.460        0
  1145  2892-31-351    -2   31   43  -0.260   0.460        0
  1146  2892-36-50     -2   31   43  -0.260   0.460        0
  1147  2909-56-25     -2   30   43   0.240   0.070        0
  1148  2909-61-59     -2   30   43   0.240   0.070        0
  1149  2909-66-19     -2   30   43   0.240   0.070        0
  1150  2911-56-25     -2   30   43   0.200  -0.120        0
  1151  2911-61-59     -2   30   43   0.200  -0.120        0
  1152  2911-66-19     -2   30   43   0.200  -0.120        0
  1153  2884-66-32      2   31   43   0.160   0.330        0
  1154  2865-8-91       2   32   43  -0.340  -0.350        0
  1155  2865-48-342     2   32   43  -0.340  -0.350        0
  1156  2848-66-32     -2   32   45   0.150  -0.410        0
  1157  2881-48-342     3   31   43   0.200  -0.420        0
  1158  2859-8-121      2   32   42   0.040   0.290        0
  1159  2871-56-24      2   32   39  -0.310  -0.280        0
  1160  2871-61-59      2   32   39  -0.310  -0.280        0
  1161  2871-66-27      2   32   39  -0.310  -0.280        0
  1162  2811-17-6       2   32   39   0.150  -0.380        0
  1163  2811-22-34      2   32   39   0.150  -0.380        0
  1164  2811-56-24      2   32   39   0.150  -0.380        0
  1165  2811-61-59      2   32   39   0.150  -0.380        0
  1166  2834-48-342     2   32   43   0.460  -0.420        0
  1167  2835-48-342     3   32   43   0.500  -0.420        0
  1168  2835-56-24      3   32   43   0.500  -0.420        0
  1169  2849-42-363     1   32   44   0.150   0.370        0
  1170  2849-48-336     1   32   44   0.150   0.370        0
  1171  2828-55-343     3   33   44  -0.310   0.370        0
  1172  2828-61-38      3   33   44  -0.310   0.370        0
  1173  2828-66-55      3   33   44  -0.310   0.370        0
  1174  2828-71-365     3   33   44  -0.310   0.370        0
  1175  2846-8-32      -3   32   44   0.190  -0.410        0
  1176  2847-56-24     -3   32   43   0.190   0.200        0
  1177  2833-1-283      1   33   43  -0.460   0.000        0
  1178  2821-43-27     -2   33   44   0.190  -0.410        0
  1179  2821-48-334    -2   33   44   0.190  -0.410        0
  1180  2821-56-23     -2   33   44   0.190  -0.410        0
  1181  2821-61-54     -2   33   44   0.190  -0.410        0
  1182  2821-66-13     -2   33   44   0.190  -0.410        0
  1183  2817-1-364      1   33   44   0.190  -0.410        0
  1184  2805-48-334    -2   34   44  -0.430  -0.410        0
  1185  2805-56-23     -2   34   44  -0.430  -0.410        0
  1186  2805-61-53     -2   34   44  -0.430  -0.410        0
  1187  2805-66-20     -2   34   44  -0.430  -0.410        0
  1188  2798-8-32      -2   34   44   0.070  -0.280        0
  1189  2792-48-334     2   34   44   0.140   0.110        0
  1190  2792-56-23      2   34   44   0.140   0.110        0
  1191  2792-61-53      2   34   44   0.140   0.110        0
  1192  2792-66-20      2   34   44   0.140   0.110        0
  1193  2820-3-338      2   33   46   0.070   0.120        0
  1194  2820-6-224      2   33   46   0.070   0.120        0
  1195  2820-7-11       2   33   46   0.070   0.120        0
  1196  2820-12-46      2   33   46   0.070   0.120        0
  1197  2820-17-19      2   33   46   0.070   0.120        0
  1198  2820-22-17      2   33   46   0.070   0.120        0
  1199  2820-27-32      2   33   46   0.070   0.120        0
  1200  2820-31-351     2   33   46   0.070   0.120        0
  1201  2820-37-28      2   33   46   0.070   0.120        0
  1202  2820-48-334     2   33   46   0.070   0.120        0
  1203  2820-56-23      2   33   46   0.070   0.120        0
  1204  2820-60-319     2   33   46   0.070   0.120        0
  1205  2820-65-299     2   33   46   0.070   0.120        0
  1206  2820-71-365     2   33   46   0.070   0.120        0
  1207  2802-48-334     3   34   46  -0.350   0.180        0
  1208  2802-56-23      3   34   46  -0.350   0.180        0
  1209  2802-61-53      3   34   46  -0.350   0.180        0
  1210  2802-66-20      3   34   46  -0.350   0.180        0
  1211  2795-17-19      2   34   46   0.150   0.090        0
  1212  2795-22-17      2   34   46   0.150   0.090        0
  1213  2795-32-13      2   34   46   0.150   0.090        0
  1214  2795-37-345     2   34   46   0.150   0.090        0
  1215  2795-49-5       2   34   46   0.150   0.090        0
  1216  2795-55-343     2   34   46   0.150   0.090        0
  1217  2795-71-365     2   34   46   0.150   0.090        0
  1218  2722-61-53     -2   36   49  -0.320   0.140        0
  1219  2723-61-53      2   36   49  -0.360   0.110        0
  1220  2723-66-20      2   36   49  -0.360   0.110        0
  1221  2715-48-335     2   36   49   0.140  -0.280        0
  1222  2715-56-23      2   36   49   0.140  -0.280        0
  1223  2715-61-53      2   36   49   0.140  -0.280        0
  1224  2715-66-20      2   36   49   0.140  -0.280        0
  1225  2754-1-365      1   35   48   0.030   0.000        0
  1226  2764-48-334    -2   35   47  -0.320   0.090        0
  1227  2764-56-23     -2   35   47  -0.320   0.090        0
  1228  2764-61-53     -2   35   47  -0.320   0.090        0
  1229  2764-66-20     -2   35   47  -0.320   0.090        0
  1230  2732-48-335     1   35   47   0.410  -0.040        0
  1231  2732-56-20      1   35   47   0.410  -0.040        0
  1232  2739-1-360      1   35   48   0.260   0.200        0
  1233  2736-8-32      -2   35   48   0.180   0.000        0
  1234  2724-48-334    -2   36   48  -0.400  -0.100        0
  1235  2724-56-23     -2   36   48  -0.400  -0.100        0
  1236  2724-61-53     -2   36   48  -0.400  -0.100        0
  1237  2724-66-20     -2   36   48  -0.400  -0.100        0
  1238  2737-42-363    -2   35   45   0.180  -0.340        0
  1239  2717-2-1        2   36   46   0.020  -0.500        0
  1240  2716-8-32       2   36   46   0.020  -0.240        0
  1241  2727-11-121     2   36   42  -0.400  -0.200        0
  1242  2789-12-271     2   34   39   0.250   0.170        0
  1243  2696-1-364      2   36   44   0.360   0.430        0
  1244  2696-6-341      2   36   44   0.360   0.430        0
  1245  2696-11-334     2   36   44   0.360   0.430        0
  1246  2696-16-313     2   36   44   0.360   0.430        0
  1247  2696-22-34      2   36   44   0.360   0.430        0
  1248  2708-48-337     2   36   44   0.170   0.490        0
  1249  2708-56-19      2   36   44   0.170   0.490        0
  1250  2708-66-28      2   36   44   0.170   0.490        0
  1251  2701-32-43     -3   36   46   0.290  -0.370        0
  1252  2701-42-363    -3   36   46   0.290  -0.370        0
  1253  2701-56-19     -3   36   46   0.290  -0.370        0
  1254  2668-42-363     1   38   46  -0.450  -0.340        0
  1255  2668-56-19      2   38   46  -0.450  -0.340        0
  1256  2668-61-52      2   38   46  -0.450  -0.340        0
  1257  2668-66-35      2   38   46  -0.450  -0.340        0
  1258  2681-8-32       1   37   49  -0.020  -0.410        0
  1259  2678-48-335     2   37   49   0.020  -0.410        0
  1260  2678-56-23      2   37   49   0.020  -0.410        0
  1261  2678-61-54      2   37   49   0.020  -0.410        0
  1262  2678-66-20      2   37   49   0.020  -0.410        0
  1263  2690-66-55      2   37   47  -0.330  -0.140        0
  1264  2692-2-1        2   37   47  -0.440  -0.010        0
  1265  2676-43-27     -2   37   51   0.130  -0.430        0
  1266  2676-48-335    -2   37   51   0.130  -0.430        0
  1267  2676-56-23     -2   37   51   0.130  -0.430        0
  1268  2676-61-53     -2   37   51   0.130  -0.430        0
  1269  2676-66-13     -2   37   51   0.130  -0.430        0
  1270  2705-48-335     1   36   50   0.220  -0.440        0
  1271  2705-56-23      1   36   50   0.220  -0.440        0
  1272  2705-61-54      1   36   50   0.220  -0.440        0
  1273  2705-66-18      1   36   50   0.220  -0.440        0
  1274  2707-43-27     -2   36   49   0.210   0.240        0
  1275  2707-48-335    -2   36   49   0.210   0.240        0
  1276  2707-56-23     -2   36   49   0.210   0.240        0
  1277  2707-61-53     -2   36   49   0.210   0.240        0
  1278  2707-66-20     -2   36   49   0.210   0.240        0
  1279  2689-48-335     1   37   49  -0.250  -0.350        0
  1280  2689-56-20      1   37   49  -0.250  -0.350        0
  1281  2656-43-27      1   38   49   0.130   0.140        0
  1282  2656-48-334     1   38   49   0.130   0.140        0
  1283  2656-56-23      1   38   49   0.130   0.140        0
  1284  2656-61-53      1   38   49   0.130   0.140        0
  1285  2656-66-20      1   38   49   0.130   0.140        0
  1286  2674-33-76      2   37   50   0.250   0.400        0
  1287  2973-56-19     -2   27   60   0.460  -0.110        0
  1288  2973-66-32     -2   27   60   0.460  -0.110        0
  1289  2973-71-56     -2   27   60   0.460  -0.110        0
  1290  2977-38-91     -2   27   60   0.460  -0.140        0
  1291  2977-43-6      -2   27   60   0.460  -0.140        0
  1292  2977-48-335    -2   27   60   0.460  -0.140        0
  1293  2977-66-32     -2   27   60   0.460  -0.140        0
  1294  2991-42-362     2   26   55   0.380  -0.010        0
  1295  2991-48-334     2   26   55   0.380  -0.010        0
  1296  2991-56-27      2   26   55   0.380  -0.010        0
  1297  2991-61-59      2   26   55   0.380  -0.010        0
  1298  2991-66-25      2   26   55   0.380  -0.010        0
  1299  2991-71-57      2   26   55   0.380  -0.010        0
  1300  2966-42-362    -2   28   55  -0.200  -0.310        0
  1301  2932-42-362     2   29   51   0.210  -0.330        0
  1302  2932-48-336     2   29   51   0.210  -0.330        0
  1303  2932-56-24      2   29   51   0.210  -0.330        0
  1304  2914-42-357     2   30   52  -0.020   0.490        0
  1305  2914-48-365     2   30   52  -0.020   0.490        0
  1306  2914-55-342     2   30   52  -0.020   0.490        0
  1307  2914-61-38      2   30   52  -0.020   0.490        0
  1308  2914-66-40      2   30   52  -0.020   0.490        0
  1309  2914-71-335     2   30   52  -0.020   0.490        0
  1310  2940-55-342     2   29   53  -0.280  -0.380        0
  1311  2917-42-365     2   30   53  -0.330   0.400        0
  1312  2917-48-336     2   30   53  -0.330   0.400        0
  1313  2917-56-26      2   30   53  -0.330   0.400        0
  1314  2917-61-59      2   30   53  -0.330   0.400        0
  1315  2917-66-27      2   30   53  -0.330   0.400        0
  1316  2917-71-55      2   30   53  -0.330   0.400        0
  1317  2924-42-362     2   29   54   0.370   0.430        0
  1318  2930-36-43      2   30   61  -0.440  -0.430        0
  1319  2930-56-27      2   30   61  -0.440  -0.430        0
  1320  2930-66-33      2   30   61  -0.440  -0.430        0
  1321  2930-71-56      2   30   61  -0.440  -0.430        0
  1322  2929-42-357    -2   29   62   0.290   0.490        0
  1323  2929-48-355    -2   29   62   0.290   0.490        0
  1324  2929-55-342    -2   29   62   0.290   0.490        0
  1325  2929-60-362    -2   29   62   0.290   0.490        0
  1326  2929-66-1      -2   29   62   0.290   0.490        0
  1327  2929-71-335    -2   29   62   0.290   0.490        0
  1328  2888-43-6      -2   31   61  -0.100  -0.230        0
  1329  2888-48-334    -2   31   61  -0.100  -0.230        0
  1330  2888-56-26     -2   31   61  -0.100  -0.230        0
  1331  2888-66-32     -2   31   61  -0.100  -0.230        0
  1332  2888-71-56     -2   31   61  -0.100  -0.230        0
  1333  2856-32-84     -2   32   61   0.050  -0.010        0
  1334  2852-43-5      -2   32   61   0.010   0.320        0
  1335  2852-56-19     -2   32   61   0.010   0.320        0
  1336  2852-66-35     -2   32   61   0.010   0.320        0
  1337  2852-71-56     -2   32   61   0.010   0.320        0
  1338  2869-43-8       2   32   62  -0.410   0.190        0
  1339  2869-48-334     2   32   62  -0.410   0.190        0
  1340  2869-56-24      2   32   62  -0.410   0.190        0
  1341  2899-42-362     2   30   55   0.480   0.280        0
  1342  2899-48-338     2   30   55   0.480   0.280        0
  1343  2903-33-257    -2   30   55   0.360  -0.140        0
  1344  2908-42-357     2   30   54   0.400   0.470        0
  1345  2908-48-356     2   30   54   0.400   0.470        0
  1346  2908-55-342     2   30   54   0.400   0.470        0
  1347  2908-66-26      2   30   54   0.400   0.470        0
  1348  2908-71-335     2   30   54   0.400   0.470        0
  1349  2879-55-342     2   31   53   0.240  -0.220        0
  1350  2879-61-40      2   31   53   0.240  -0.220        0
  1351  2879-66-19      2   31   53   0.240  -0.220        0
  1352  2879-71-335     2   31   53   0.240  -0.220        0
  1353  2878-66-26      2   31   54   0.240   0.470        0
  1354  2878-71-335     2   31   54   0.240   0.470        0
  1355  2897-1-274      2   31   52  -0.450   0.290        0
  1356  2897-6-284      2   31   52  -0.450   0.290        0
  1357  2898-11-34      2   31   52  -0.480   0.190        0
  1358  2898-16-361     2   31   52  -0.480   0.190        0
  1359  2898-37-33      2   31   52  -0.480   0.190        0
  1360  2882-43-32      2   31   51   0.160  -0.400        0
  1361  2882-48-365     2   31   51   0.160  -0.400        0
  1362  2882-55-342     2   31   51   0.160  -0.400        0
  1363  2882-61-38      2   31   51   0.160  -0.400        0
  1364  2882-66-40      2   31   51   0.160  -0.400        0
  1365  2882-71-335     2   31   51   0.160  -0.400        0
  1366  2870-33-274     2   32   51  -0.410  -0.240        0
  1367  2862-33-135     2   32   52  -0.220  -0.420        0
  1368  2824-66-31      2   33   52  -0.110   0.420        0
  1369  2824-71-54      2   33   52  -0.110   0.420        0
  1370  2807-49-5       2   34   54  -0.500   0.340        0
  1371  2807-55-342     2   34   54  -0.500   0.340        0
  1372  2807-71-62      2   34   54  -0.500   0.340        0
  1373  2797-71-62      2   34   56   0.070   0.450        0
  1374  2845-66-35      2   32   58   0.240   0.430        0
  1375  2845-71-62      2   32   58   0.240   0.430        0
  1376  2841-1-274      2   32   57   0.310  -0.290        0
  1377  2841-6-284      2   32   57   0.310  -0.290        0
  1378  2841-11-34      2   32   57   0.310  -0.290        0
  1379  2841-16-361     2   32   57   0.310  -0.290        0
  1380  2841-38-91      2   32   57   0.310  -0.290        0
  1381  2841-39-91      2   32   57   0.310  -0.290        0
  1382  2841-42-364     2   32   57   0.310  -0.290        0
  1383  2841-48-336     2   32   57   0.310  -0.290        0
  1384  2815-56-24      2   33   57   0.270  -0.360        0
  1385  2801-33-52      2   34   57  -0.080  -0.130        0
  1386  2844-43-6       2   32   59   0.280   0.270        0
  1387  2844-48-334     2   32   59   0.280   0.270        0
  1388  2844-56-19      2   32   59   0.280   0.270        0
  1389  2844-66-34      2   32   59   0.280   0.270        0
  1390  2844-71-61      2   32   59   0.280   0.270        0
  1391  2819-56-17      2   33   60   0.120  -0.440        0
  1392  2825-56-19      2   33   60  -0.260   0.470        0
  1393  2825-66-35      2   33   60  -0.260   0.470        0
  1394  2794-33-62      3   34   59   0.150  -0.310        0
  1395  2791-42-356     3   34   59   0.150  -0.340        0
  1396  2791-48-337     3   34   59   0.150  -0.340        0
  1397  2791-61-61      3   34   59   0.150  -0.340        0
  1398  2791-66-26      3   34   59   0.150  -0.340        0
  1399  2806-42-356    -2   34   60  -0.190  -0.240        0
  1400  2806-48-337    -2   34   60  -0.190  -0.240        0
  1401  2840-43-5       2   32   62   0.390   0.000        0
  1402  2840-48-334     2   32   62   0.390   0.000        0
  1403  2840-56-19      2   32   62   0.390   0.000        0
  1404  2840-61-56      2   32   62   0.390   0.000        0
  1405  2840-66-32      2   32   62   0.390   0.000        0
  1406  2827-66-32      2   33   61  -0.300   0.250        0
  1407  2827-71-61      2   33   61  -0.300   0.250        0
  1408  2813-66-26      2   33   61   0.350  -0.230        0
  1409  2813-71-323     2   33   61   0.350  -0.230        0
  1410  2814-42-357    -2   34   61  -0.310  -0.140        0
  1411  2814-55-342    -2   34   61  -0.310  -0.140        0
  1412  2814-61-35     -2   34   61  -0.310  -0.140        0
  1413  2814-66-26     -2   34   61  -0.310  -0.140        0
  1414  2804-42-357    -2   34   61  -0.350  -0.100        0
  1415  2804-55-342    -2   34   61  -0.350  -0.100        0
  1416  2804-61-35     -2   34   61  -0.350  -0.100        0
  1417  2804-66-26     -2   34   61  -0.350  -0.100        0
  1418  2812-42-335     3   33   62   0.350  -0.360        0
  1419  2812-48-355     3   33   62   0.350  -0.360        0
  1420  2812-55-342     3   33   62   0.350  -0.360        0
  1421  2812-61-35      3   33   62   0.350  -0.360        0
  1422  2812-71-323     3   33   62   0.350  -0.360        0
  1423  2765-42-357     2   35   61   0.180  -0.230        0
  1424  2765-48-355     2   35   61   0.180  -0.230        0
  1425  2765-55-342     2   35   61   0.180  -0.230        0
  1426  2765-61-35      2   35   61   0.180  -0.230        0
  1427  2765-66-26      2   35   61   0.180  -0.230        0
  1428  2765-71-323     2   35   61   0.180  -0.230        0
  1429  2728-8-69       2   36   59  -0.430   0.110        0
  1430  2719-42-357     2   36   59  -0.090  -0.020        0
  1431  2719-48-356     2   36   59  -0.090  -0.020        0
  1432  2719-55-343     2   36   59  -0.090  -0.020        0
  1433  2726-42-357     2   36   60  -0.390   0.440        0
  1434  2726-48-355     2   36   60  -0.390   0.440        0
  1435  2726-55-342     2   36   60  -0.390   0.440        0
  1436  2726-61-35      2   36   60  -0.390   0.440        0
  1437  2726-66-26      2   36   60  -0.390   0.440        0
  1438  2726-71-323     2   36   60  -0.390   0.440        0
  1439  2784-71-62      2   34   57   0.300  -0.490        0
  1440  2730-56-24      2   35   58   0.410  -0.350        0
  1441  2730-61-54      2   35   58   0.410  -0.350        0
  1442  2730-66-18      2   35   58   0.410  -0.350        0
  1443  2781-16-361     2   34   56   0.340   0.380        0
  1444  2782-17-7       2   34   56   0.300   0.020        0
  1445  2782-71-62      2   34   56   0.300   0.020        0
  1446  2762-48-338     2   35   56  -0.270   0.450        0
  1447  2785-56-23      2   34   56   0.420  -0.010        0
  1448  2785-66-19      2   34   56   0.420  -0.010        0
  1449  2757-56-24      2   35   56  -0.080   0.190        0
  1450  2757-66-19      2   35   56  -0.080   0.190        0
  1451  2763-56-24      2   35   55  -0.200   0.340        0
  1452  2763-66-19      2   35   55  -0.200   0.340        0
  1453  2729-56-24      2   36   55  -0.390   0.340        0
  1454  2729-66-18      2   36   55  -0.390   0.340        0
  1455  2720-16-298     2   36   56  -0.160  -0.140        0
  1456  2720-22-31      2   36   56  -0.160  -0.140        0
  1457  2706-66-35      2   36   56   0.140   0.450        0
  1458  2710-56-24      2   36   56   0.140   0.450        0
  1459  2755-56-23      2   35   53  -0.160  -0.220        0
  1460  2755-61-54      2   35   53  -0.160  -0.220        0
  1461  2755-66-18      2   35   53  -0.160  -0.220        0
  1462  2735-1-365      2   35   53   0.340  -0.390        0
  1463  2778-33-182     2   34   51   0.420  -0.200        0
  1464  2759-34-121     2   35   51  -0.080   0.250        0
  1465  2738-66-26      2   35   51   0.260   0.020        0
  1466  2738-71-348     2   35   51   0.260   0.020        0
  1467  2733-10-280     2   36   52  -0.430   0.190        0
  1468  2733-22-19      2   36   52  -0.430   0.190        0
  1469  2733-42-362     2   36   52  -0.430   0.190        0
  1470  2733-48-362     2   36   52  -0.430   0.190        0
  1471  2733-55-342     2   36   52  -0.430   0.190        0
  1472  2733-61-38      2   36   52  -0.430   0.190        0
  1473  2733-66-40      2   36   52  -0.430   0.190        0
  1474  2733-71-348     2   36   52  -0.430   0.190        0
  1475  2698-49-8       2   36   51   0.330   0.480        0
  1476  2698-55-342     2   36   51   0.330   0.480        0
  1477  2698-61-10      2   36   51   0.330   0.480        0
  1478  2698-71-348     2   36   51   0.330   0.480        0
  1479  2665-42-362    -2   38   51  -0.020  -0.170        0
  1480  2665-48-362    -2   38   51  -0.020  -0.170        0
  1481  2665-55-342    -2   38   51  -0.020  -0.170        0
  1482  2665-61-4      -2   38   51  -0.020  -0.170        0
  1483  2665-66-26     -2   38   51  -0.020  -0.170        0
  1484  2665-71-348    -2   38   51  -0.020  -0.170        0
  1485  2664-1-360      1   38   51  -0.180   0.380        0
  1486  2664-6-341      1   38   51  -0.180   0.380        0
  1487  2662-42-362     2   38   52   0.050   0.000        0
  1488  2662-48-361     2   38   52   0.050   0.000        0
  1489  2662-55-342     2   38   52   0.050   0.000        0
  1490  2662-71-348     2   38   52   0.050   0.000        0
  1491  2659-55-342     2   38   52   0.050   0.000        0
  1492  2659-61-11      2   38   52   0.050   0.000        0
  1493  2659-66-26      2   38   52   0.050   0.000        0
  1494  2659-71-348     2   38   52   0.050   0.000        0
  1495  2658-1-92       1   38   52   0.050   0.390        0
  1496  2742-17-3       2   36   54   0.370   0.500        0
  1497  2742-22-1       2   36   54   0.370   0.500        0
  1498  2742-38-91      2   36   54   0.370   0.500        0
  1499  2742-56-24      2   36   54   0.370   0.500        0
  1500  2742-61-54      2   36   54   0.370   0.500        0
  1501  2742-66-31      2   36   54   0.370   0.500        0
  1502  2742-71-62      2   36   54   0.370   0.500        0
  1503  2683-42-362     2   37   53   0.100  -0.290        0
  1504  2683-48-362     2   37   53   0.100  -0.290        0
  1505  2683-55-342     2   37   53   0.100  -0.290        0
  1506  2683-61-32      2   37   53   0.100  -0.290        0
  1507  2683-66-40      2   37   53   0.100  -0.290        0
  1508  2686-1-274      2   37   53  -0.130   0.460        0
  1509  2686-6-283      2   37   53  -0.130   0.460        0
  1510  2686-10-280     2   37   53  -0.130   0.460        0
  1511  2666-1-274      1   38   52  -0.440   0.130        0
  1512  2666-6-283      1   38   52  -0.440   0.130        0
  1513  2670-17-3       2   37   54   0.400   0.500        0
  1514  2670-22-31      2   37   54   0.400   0.500        0
  1515  2670-31-351     2   37   54   0.400   0.500        0
  1516  2670-36-50      2   37   54   0.400   0.500        0
  1517  2670-42-352     2   37   54   0.400   0.500        0
  1518  2670-56-24      2   37   54   0.400   0.500        0
  1519  2670-61-54      2   37   54   0.400   0.500        0
  1520  2670-66-33      2   37   54   0.400   0.500        0
  1521  2670-71-62      2   37   54   0.400   0.500        0
  1522  2703-36-244     2   36   60   0.220   0.470        0
  1523  2703-48-355     2   36   60   0.220   0.470        0
  1524  2703-55-343     2   36   60   0.220   0.470        0
  1525  2703-61-35      2   36   60   0.220   0.470        0
  1526  2703-66-19      2   36   60   0.220   0.470        0
  1527  2703-71-323     2   36   60   0.220   0.470        0
  1528  2680-71-61      2   37   60  -0.020  -0.230        0
  1529  2704-42-335     2   36   59   0.220   0.140        0
  1530  2704-48-356     2   36   59   0.220   0.140        0
  1531  2672-42-356     2   38   59  -0.330  -0.380        0
  1532  2672-66-33      2   38   59  -0.330  -0.380        0
  1533  2672-71-63      2   38   59  -0.330  -0.380        0
  1534  2657-42-356     2   38   60   0.170  -0.080        0
  1535  2657-66-33      2   38   60   0.170  -0.080        0
  1536  2685-42-356     2   37   61   0.170  -0.490        0
  1537  2685-48-355     2   37   61   0.170  -0.490        0
  1538  2685-55-343     2   37   61   0.170  -0.490        0
  1539  2685-61-35      2   37   61   0.170  -0.490        0
  1540  2685-66-26      2   37   61   0.170  -0.490        0
  1541  2685-71-323     2   37   61   0.170  -0.490        0
  1542  2983-16-361     2   27   66  -0.270   0.480        0
  1543  2983-22-31      2   27   66  -0.270   0.480        0
  1544  2983-27-11      2   27   66  -0.270   0.480        0
  1545  2980-43-8       2   27   66   0.030  -0.370        0
  1546  2980-48-334     2   27   66   0.030  -0.370        0
  1547  2980-56-24      2   27   66   0.030  -0.370        0
  1548  2990-16-361     2   26   64   0.420   0.500        0
  1549  2990-48-337     2   26   64   0.420   0.500        0
  1550  2990-56-24      2   26   64   0.420   0.500        0
  1551  2956-2-85       2   28   65   0.260  -0.110        0
  1552  2956-6-284      2   28   65   0.260  -0.110        0
  1553  2956-12-261     2   28   65   0.260  -0.110        0
  1554  2956-16-133     2   28   65   0.260  -0.110        0
  1555  2956-26-124     2   28   65   0.260  -0.110        0
  1556  2956-37-34      2   28   65   0.260  -0.110        0
  1557  2956-43-5       2   28   65   0.260  -0.110        0
  1558  2956-48-334     2   28   65   0.260  -0.110        0
  1559  2956-56-27      2   28   65   0.260  -0.110        0
  1560  2956-66-35      2   28   65   0.260  -0.110        0
  1561  2956-71-12      2   28   65   0.260  -0.110        0
  1562  2956-71-365     2   28   65   0.260  -0.110        0
  1563  2931-11-62      2   29   63   0.210   0.430        0
  1564  2931-16-361     2   29   63   0.210   0.430        0
  1565  2931-22-31      2   29   63   0.210   0.430        0
  1566  2635-56-25      3   38   20   0.500   0.290        0
  1567  2595-16-355     3   40   19   0.440   0.310        0
  1568  2595-48-349     3   40   19   0.440   0.310        0
  1569  2595-55-355     3   40   19   0.440   0.310        0
  1570  2595-61-4       3   40   19   0.440   0.310        0
  1571  2595-66-47      3   40   19   0.440   0.310        0
  1572  2595-71-5       3   40   19   0.440   0.310        0
  1573  2595-71-365     3   40   19   0.440   0.310        0
  1574  2594-48-350    -2   40   21   0.410  -0.300        0
  1575  2594-55-355    -2   40   21   0.410  -0.300        0
  1576  2594-66-47     -2   40   21   0.410  -0.300        0
  1577  2594-71-5      -2   40   21   0.410  -0.300        0
  1578  2594-71-365    -2   40   21   0.410  -0.300        0
  1579  2599-66-47      2   40   20   0.260   0.310        0
  1580  2599-71-5       2   40   20   0.260   0.310        0
  1581  2599-71-365     2   40   20   0.260   0.310        0
  1582  2596-42-351    -2   40   18   0.400   0.360        0
  1583  2596-48-349    -2   40   18   0.400   0.360        0
  1584  2596-55-355    -2   40   18   0.400   0.360        0
  1585  2596-61-4      -2   40   18   0.400   0.360        0
  1586  2596-66-34     -2   40   18   0.400   0.360        0
  1587  2596-71-5       3   40   18   0.400   0.360        0
  1588  2596-71-365     3   40   18   0.400   0.360        0
  1589  2591-56-3       3   40   18   0.330   0.330        0
  1590  2591-61-4       3   40   18   0.330   0.330        0
  1591  2591-66-34      3   40   18   0.330   0.330        0
  1592  2591-71-5       3   40   18   0.330   0.330        0
  1593  2591-71-365     3   40   18   0.330   0.330        0
  1594  2588-42-351     3   40   16   0.470   0.120        0
  1595  2588-48-349     3   40   16   0.470   0.120        0
  1596  2588-55-355     3   40   16   0.470   0.120        0
  1597  2588-61-4       3   40   16   0.470   0.120        0
  1598  2588-66-47      3   40   16   0.470   0.120        0
  1599  2588-71-4       3   40   16   0.470   0.120        0
  1600  2588-71-365     3   40   16   0.470   0.120        0
  1601  2564-12-171     3   41   18   0.090   0.390        0
  1602  2564-16-355     3   41   18   0.090   0.390        0
  1603  2564-22-37      3   41   18   0.090   0.390        0
  1604  2530-42-351    -2   42   18   0.350   0.260        0
  1605  2530-48-349    -2   42   18   0.350   0.260        0
  1606  2530-55-355    -2   42   18   0.350   0.260        0
  1607  2530-61-6      -2   42   18   0.350   0.260        0
  1608  2530-66-47     -2   42   18   0.350   0.260        0
  1609  2530-71-5       3   42   18   0.350   0.260        0
  1610  2530-71-365     3   42   18   0.350   0.260        0
  1611  2529-17-6       3   42   20   0.440   0.370        0
  1612  2529-56-24      3   42   20   0.440   0.370        0
  1613  2529-61-52      3   42   20   0.440   0.370        0
  1614  2529-66-19      3   42   20   0.440   0.370        0
  1615  2587-1-105      2   40   21   0.490  -0.360        0
  1616  2587-7-3        2   40   21   0.490  -0.360        0
  1617  2449-32-85      2   44   25   0.360   0.310        0
  1618  2492-48-349    -2   43   22   0.400   0.420        0
  1619  2492-61-4      -2   43   22   0.400   0.420        0
  1620  2492-66-39     -2   43   22   0.400   0.420        0
  1621  2492-71-6       3   43   22   0.400   0.420        0
  1622  2492-71-365     3   43   22   0.400   0.420        0
  1623  2491-56-3       3   43   23   0.400  -0.260        0
  1624  2491-61-6       3   43   23   0.400  -0.260        0
  1625  2491-66-39      3   43   23   0.400  -0.260        0
  1626  2491-71-6       3   43   23   0.400  -0.260        0
  1627  2491-71-365     3   43   23   0.400  -0.260        0
  1628  2450-48-349    -2   44   23   0.430   0.160        0
  1629  2450-55-354    -2   44   23   0.430   0.160        0
  1630  2450-61-4      -2   44   23   0.430   0.160        0
  1631  2450-66-39     -2   44   23   0.430   0.160        0
  1632  2450-71-6       2   44   23   0.430   0.160        0
  1633  2450-71-365     2   44   23   0.430   0.160        0
  1634  2451-48-349    -2   44   22   0.430   0.380        0
  1635  2451-55-355    -2   44   22   0.430   0.380        0
  1636  2451-61-4      -2   44   22   0.430   0.380        0
  1637  2451-66-27     -2   44   22   0.430   0.380        0
  1638  2451-71-6       3   44   22   0.430   0.380        0
  1639  2451-71-365     3   44   22   0.430   0.380        0
  1640  2442-48-348     3   44   20   0.430  -0.220        0
  1641  2442-56-23      3   44   20   0.430  -0.220        0
  1642  2442-60-319     3   44   20   0.430  -0.220        0
  1643  2442-66-26      3   44   20   0.430  -0.220        0
  1644  2442-71-11      3   44   20   0.430  -0.220        0
  1645  2452-12-171     3   44   20   0.430   0.330        0
  1646  2452-16-314     3   44   20   0.430   0.330        0
  1647  2452-32-85      3   44   20   0.430   0.330        0
  1648  2452-35-53      3   44   20   0.430   0.330        0
  1649  2390-42-351     3   45   17   0.260  -0.050        0
  1650  2390-48-349     3   45   17   0.260  -0.050        0
  1651  2390-55-355     3   45   17   0.260  -0.050        0
  1652  2390-66-47      3   45   17   0.260  -0.050        0
  1653  2390-71-6       3   45   17   0.260  -0.050        0
  1654  2390-71-365     3   45   17   0.260  -0.050        0
  1655  2303-42-351    -2   46   17   0.370  -0.050        0
  1656  2303-48-349    -2   46   17   0.370  -0.050        0
  1657  2303-55-355    -2   46   17   0.370  -0.050        0
  1658  2303-61-4      -2   46   17   0.370  -0.050        0
  1659  2303-66-47     -2   46   17   0.370  -0.050        0
  1660  2303-71-6       3   46   17   0.370  -0.050        0
  1661  2303-71-365     3   46   17   0.370  -0.050        0
  1662  2417-56-24      3   45   20   0.000  -0.190        0
  1663  2417-61-54      3   45   20   0.000  -0.190        0
  1664  2411-56-24      3   45   20   0.040  -0.190        0
  1665  2411-61-54      3   45   20   0.040  -0.190        0
  1666  2259-42-352     3   46   21   0.490  -0.280        0
  1667  2259-56-3       3   46   21   0.490  -0.280        0
  1668  2296-22-38     -2   46   21   0.420   0.370        0
  1669  2296-42-352    -2   46   21   0.420   0.370        0
  1670  2296-48-350    -2   46   21   0.420   0.370        0
  1671  2296-55-354    -2   46   21   0.420   0.370        0
  1672  2296-61-6      -2   46   21   0.420   0.370        0
  1673  2296-66-39     -2   46   21   0.420   0.370        0
  1674  2296-71-6       3   46   21   0.420   0.370        0
  1675  2296-71-365     3   46   21   0.420   0.370        0
  1676  2302-48-350    -2   46   22   0.460   0.380        0
  1677  2302-55-354    -2   46   22   0.460   0.380        0
  1678  2302-61-6      -2   46   22   0.460   0.380        0
  1679  2302-66-32     -2   46   22   0.460   0.380        0
  1680  2302-71-6       3   46   22   0.460   0.380        0
  1681  2302-71-365     3   46   22   0.460   0.380        0
  1682  2301-37-33     -2   46   23   0.460   0.350        0
  1683  2301-42-352    -2   46   23   0.460   0.350        0
  1684  2301-48-349    -2   46   23   0.460   0.350        0
  1685  2301-55-354    -2   46   23   0.460   0.350        0
  1686  2301-66-1      -2   46   23   0.460   0.350        0
  1687  2301-71-6      -2   46   23   0.460   0.350        0
  1688  2301-71-365    -2   46   23   0.460   0.350        0
  1689  2440-55-354     3   44   25   0.480   0.370        0
  1690  2440-61-6       3   44   25   0.480   0.370        0
  1691  2440-65-342     3   44   25   0.480   0.370        0
  1692  2440-71-6       3   44   25   0.480   0.370        0
  1693  2440-71-365     3   44   25   0.480   0.370        0
  1694  2300-16-354    -2   46   25   0.280   0.370        0
  1695  2300-48-350    -2   46   25   0.280   0.370        0
  1696  2300-55-355    -2   46   25   0.280   0.370        0
  1697  2300-61-6      -2   46   25   0.280   0.370        0
  1698  2300-65-341    -2   46   25   0.280   0.370        0
  1699  2300-71-7      -2   46   25   0.280   0.370        0
  1700  2300-71-365     2   46   25   0.280   0.370        0
  1701  2220-12-311    -2   47   26   0.390  -0.250        0
  1702  2220-16-356    -2   47   26   0.390  -0.250        0
  1703  2220-48-350    -2   47   26   0.390  -0.250        0
  1704  2220-55-354    -2   47   26   0.390  -0.250        0
  1705  2220-61-7      -2   47   26   0.390  -0.250        0
  1706  2220-66-39     -2   47   26   0.390  -0.250        0
  1707  2220-71-7      -2   47   26   0.390  -0.250        0
  1708  2220-71-365     3   47   26   0.390  -0.250        0
  1709  2222-55-354    -2   47   25   0.390   0.070        0
  1710  2222-61-6      -2   47   25   0.390   0.070        0
  1711  2222-65-341    -2   47   25   0.390   0.070        0
  1712  2222-71-7      -2   47   25   0.390   0.070        0
  1713  2222-71-365     3   47   25   0.390   0.070        0
  1714  2096-48-350    -2   48   25   0.310   0.360        0
  1715  2096-55-354    -2   48   25   0.310   0.360        0
  1716  2096-61-6      -2   48   25   0.310   0.360        0
  1717  2096-65-343    -2   48   25   0.310   0.360        0
  1718  2096-71-7      -2   48   25   0.310   0.360        0
  1719  2096-71-365     3   48   25   0.310   0.360        0
  1720  2089-12-171    -2   48   23   0.410  -0.170        0
  1721  2089-42-352    -2   48   23   0.410  -0.170        0
  1722  2089-48-350    -2   48   23   0.410  -0.170        0
  1723  2089-55-354    -2   48   23   0.410  -0.170        0
  1724  2089-61-6      -2   48   23   0.410  -0.170        0
  1725  2089-66-55     -2   48   23   0.410  -0.170        0
  1726  2089-71-6       3   48   23   0.410  -0.170        0
  1727  2089-71-365     3   48   23   0.410  -0.170        0
  1728  2088-42-352    -2   48   24   0.420  -0.200        0
  1729  2088-48-350    -2   48   24   0.420  -0.200        0
  1730  2088-55-354    -2   48   24   0.420  -0.200        0
  1731  2088-61-6      -2   48   24   0.420  -0.200        0
  1732  2088-66-48     -2   48   24   0.420  -0.200        0
  1733  2088-71-6       3   48   24   0.420  -0.200        0
  1734  2088-71-365     3   48   24   0.420  -0.200        0
  1735  2620-61-53      3   40   33  -0.480  -0.430        0
  1736  2620-66-28      3   40   33  -0.480  -0.430        0
  1737  2630-1-86       3   39   33  -0.280  -0.500        0
  1738  2615-21-353     2   40   32  -0.360   0.240        0
  1739  2615-27-20      2   40   32  -0.360   0.240        0
  1740  2615-36-64      2   40   32  -0.360   0.240        0
  1741  2615-42-350     2   40   32  -0.360   0.240        0
  1742  2618-56-23      2   40   32  -0.440   0.310        0
  1743  2618-61-53      2   40   32  -0.440   0.310        0
  1744  2618-66-28      2   40   32  -0.440   0.310        0
  1745  2616-1-109      2   40   32  -0.370  -0.080        0
  1746  2616-7-10       3   40   32  -0.370  -0.080        0
  1747  2616-10-319     3   40   32  -0.370  -0.080        0
  1748  2607-56-23      3   40   32  -0.020  -0.440        0
  1749  2607-61-53      3   40   32  -0.020  -0.440        0
  1750  2607-66-28      3   40   32  -0.020  -0.440        0
  1751  2578-2-305      2   41   28  -0.300   0.180        0
  1752  2582-1-105      2   41   30  -0.370   0.260        0
  1753  2577-56-23      3   41   30  -0.300   0.060        0
  1754  2577-61-53      3   41   30  -0.300   0.060        0
  1755  2577-66-28      3   41   30  -0.300   0.060        0
  1756  2573-56-27      3   41   30  -0.140   0.350        0
  1757  2553-33-188     3   41   29   0.460  -0.400        0
  1758  2553-56-27      3   41   29   0.460  -0.400        0
  1759  2574-1-107      2   41   32  -0.220   0.430        0
  1760  2580-1-109      3   41   33  -0.330  -0.270        0
  1761  2571-21-354     3   41   33  -0.100  -0.370        0
  1762  2498-37-34      2   43   32   0.270   0.170        0
  1763  2498-42-350     2   43   32   0.270   0.170        0
  1764  2519-56-23      3   43   31  -0.340  -0.100        0
  1765  2507-48-300     3   43   28  -0.010   0.460        0
  1766  2507-55-318     3   43   28  -0.010   0.460        0
  1767  2507-60-313     3   43   28  -0.010   0.460        0
  1768  2507-65-364     3   43   28  -0.010   0.460        0
  1769  2507-71-350     3   43   28  -0.010   0.460        0
  1770  2508-48-300     3   43   28  -0.010   0.460        0
  1771  2508-55-318     3   43   28  -0.010   0.460        0
  1772  2508-60-313     3   43   28  -0.010   0.460        0
  1773  2508-65-364     3   43   28  -0.010   0.460        0
  1774  2508-71-350     3   43   28  -0.010   0.460        0
  1775  2448-56-25      2   44   28   0.410   0.170        0
  1776  2448-61-52      2   44   28   0.410   0.170        0
  1777  2448-66-20      2   44   28   0.410   0.170        0
  1778  2311-56-23      3   46   29   0.400   0.430        0
  1779  2311-61-53      3   46   29   0.400   0.430        0
  1780  2311-66-28      3   46   29   0.400   0.430        0
  1781  2084-2-305      2   48   29   0.470  -0.350        0
  1782  2099-42-352    -2   48   27   0.390  -0.470        0
  1783  2099-48-365    -2   48   27   0.390  -0.470        0
  1784  2099-55-354    -2   48   27   0.390  -0.470        0
  1785  2099-61-7      -2   48   27   0.390  -0.470        0
  1786  2099-65-344    -2   48   27   0.390  -0.470        0
  1787  2099-71-365    -2   48   27   0.390  -0.470        0
  1788  2087-71-365     2   48   27   0.420  -0.470        0
  1789  2110-71-365     3   48   28   0.270  -0.430        0
  1790  2040-65-364     2   49   28   0.000  -0.140        0
  1791  2040-71-365     2   49   28   0.000  -0.140        0
  1792  2034-65-364     3   49   28   0.040  -0.100        0
  1793  2034-71-12      3   49   28   0.040  -0.100        0
  1794  2034-71-365     3   49   28   0.040  -0.100        0
  1795  2009-71-8       3   49   28   0.380  -0.460        0
  1796  2009-71-365     3   49   28   0.380  -0.460        0
  1797  2008-71-8       3   49   26   0.420   0.460        0
  1798  2008-71-365     3   49   26   0.420   0.460        0
  1799  1923-16-315    -2   50   26   0.410   0.400        0
  1800  1923-22-38     -2   50   26   0.410   0.400        0
  1801  1923-27-24     -2   50   26   0.410   0.400        0
  1802  1923-32-85     -2   50   26   0.410   0.400        0
  1803  1923-36-1      -2   50   26   0.410   0.400        0
  1804  1923-42-352    -2   50   26   0.410   0.400        0
  1805  1923-48-348    -2   50   26   0.410   0.400        0
  1806  1923-55-354    -2   50   26   0.410   0.400        0
  1807  1923-60-323    -2   50   26   0.410   0.400        0
  1808  1923-65-343    -2   50   26   0.410   0.400        0
  1809  1923-71-8      -2   50   26   0.410   0.400        0
  1810  1923-71-365    -2   50   26   0.410   0.400        0
  1811  1914-55-354     2   50   26   0.410   0.460        0
  1812  1914-61-7       2   50   26   0.410   0.460        0
  1813  1914-71-8       2   50   26   0.410   0.460        0
  1814  1919-71-8       3   50   26   0.370   0.430        0
  1815  1914-71-365     2   50   26   0.410   0.460        0
  1816  1919-71-365     3   50   26   0.370   0.430        0
  1817  1938-65-364     2   50   27   0.110   0.180        0
  1818  1960-65-364     2   50   27  -0.010   0.020        0
  1819  1922-12-171    -2   50   27   0.340   0.340        0
  1820  1922-42-352    -2   50   27   0.340   0.340        0
  1821  1922-48-349    -2   50   27   0.340   0.340        0
  1822  1922-55-354    -2   50   27   0.340   0.340        0
  1823  1922-61-7      -2   50   27   0.340   0.340        0
  1824  1922-71-8      -2   50   27   0.340   0.340        0
  1825  1922-71-365     2   50   27   0.340   0.340        0
  1826  1918-10-108     2   50   27   0.300   0.410        0
  1827  1918-66-32      2   50   27   0.300   0.410        0
  1828  1918-71-8       2   50   27   0.300   0.410        0
  1829  1918-71-365     2   50   27   0.300   0.410        0
  1830  1959-71-8       3   50   28   0.000  -0.170        0
  1831  1959-71-365     3   50   28   0.000  -0.170        0
  1832  1944-71-365     2   50   28   0.070  -0.200        0
  1833  1988-35-4      -2   50   32  -0.380   0.320        0
  1834  1908-56-18      2   50   32   0.430   0.480        0
  1835  1908-66-18      2   50   32   0.430   0.480        0
  1836  2638-33-46      2   38   50   0.170  -0.150        0
  1837  2648-35-95     -2   38   49   0.280  -0.030        0
  1838  2627-48-336    -2   39   50  -0.070  -0.410        0
  1839  2619-2-1       -2   40   50  -0.460   0.270        0
  1840  2642-12-43      1   38   48   0.320   0.290        0
  1841  2649-17-23     -2   38   48   0.280   0.360        0
  1842  2649-22-20     -2   38   48   0.280   0.360        0
  1843  2649-42-363    -2   38   48   0.280   0.360        0
  1844  2649-48-336    -2   38   48   0.280   0.360        0
  1845  2649-56-20     -2   38   48   0.280   0.360        0
  1846  2649-61-55     -2   38   48   0.280   0.360        0
  1847  2628-1-365      1   39   48  -0.110  -0.160        0
  1848  2650-71-350     2   38   47   0.200   0.120        0
  1849  2655-42-362     2   38   47   0.160   0.120        0
  1850  2655-48-362     2   38   47   0.160   0.120        0
  1851  2655-55-343     2   38   47   0.160   0.120        0
  1852  2655-61-40      2   38   47   0.160   0.120        0
  1853  2655-66-55      2   38   47   0.160   0.120        0
  1854  2655-71-350     2   38   47   0.160   0.120        0
  1855  2604-61-55      1   40   48   0.120  -0.460        0
  1856  2626-22-20     -3   39   49   0.200  -0.380        0
  1857  2626-32-42     -3   39   49   0.200  -0.380        0
  1858  2623-8-279      1   39   48   0.280   0.260        0
  1859  2623-12-32      1   39   48   0.280   0.260        0
  1860  2623-17-22      1   39   48   0.280   0.260        0
  1861  2623-22-1       1   39   48   0.280   0.260        0
  1862  2623-27-34      1   39   48   0.280   0.260        0
  1863  2608-12-43      2   40   48  -0.040   0.290        0
  1864  2608-17-23      2   40   48  -0.040   0.290        0
  1865  2608-22-20      2   40   48  -0.040   0.290        0
  1866  2608-32-42      2   40   48  -0.040   0.290        0
  1867  2629-3-217      1   39   46  -0.110  -0.110        0
  1868  2606-56-26      3   40   46   0.120   0.440        0
  1869  2606-61-55      3   40   46   0.120   0.440        0
  1870  2606-66-20      3   40   46   0.120   0.440        0
  1871  2592-12-43     -2   40   50   0.390   0.340        0
  1872  2592-17-23     -2   40   50   0.390   0.340        0
  1873  2592-22-23     -2   40   50   0.390   0.340        0
  1874  2592-42-364    -2   40   50   0.390   0.340        0
  1875  2592-48-336    -2   40   50   0.390   0.340        0
  1876  2592-56-20     -2   40   50   0.390   0.340        0
  1877  2592-61-55     -2   40   50   0.390   0.340        0
  1878  2603-27-15     -2   40   50   0.160   0.010        0
  1879  2603-42-362    -2   40   50   0.160   0.010        0
  1880  2603-48-336    -2   40   50   0.160   0.010        0
  1881  2603-55-343    -2   40   50   0.160   0.010        0
  1882  2603-61-40     -2   40   50   0.160   0.010        0
  1883  2603-65-343    -2   40   50   0.160   0.010        0
  1884  2603-71-47     -2   40   50   0.160   0.010        0
  1885  2603-71-350    -2   40   50   0.160   0.010        0
  1886  2593-1-365      1   40   49   0.390   0.390        0
  1887  2558-22-23     -2   41   50   0.300  -0.440        0
  1888  2558-27-35     -2   41   50   0.300  -0.440        0
  1889  2558-42-362    -2   41   50   0.300  -0.440        0
  1890  2558-48-362    -2   41   50   0.300  -0.440        0
  1891  2558-55-343    -2   41   50   0.300  -0.440        0
  1892  2558-61-40     -2   41   50   0.300  -0.440        0
  1893  2651-42-356     2   38   61   0.250  -0.490        0
  1894  2632-66-33      2   39   61  -0.370  -0.400        0
  1895  2632-71-63      2   39   61  -0.370  -0.400        0
  1896  2644-48-345     2   38   60   0.280   0.250        0
  1897  2644-71-63      2   38   60   0.280   0.250        0
  1898  2645-42-356     2   38   59   0.320  -0.380        0
  1899  2645-48-345     2   38   59   0.320  -0.380        0
  1900  2645-66-33      2   38   59   0.320  -0.380        0
  1901  2645-71-63      2   38   59   0.320  -0.380        0
  1902  2624-71-63      2   39   59   0.240   0.110        0
  1903  2609-42-365    -2   40   58  -0.110  -0.190        0
  1904  2609-48-338    -2   40   58  -0.110  -0.190        0
  1905  2609-56-24     -2   40   58  -0.110  -0.190        0
  1906  2609-61-54     -2   40   58  -0.110  -0.190        0
  1907  2609-66-26     -2   40   58  -0.110  -0.190        0
  1908  2609-71-62     -2   40   58  -0.110  -0.190        0
  1909  2631-56-24      1   39   53  -0.180  -0.390        0
  1910  2631-61-54      1   39   53  -0.180  -0.390        0
  1911  2631-66-33      1   39   53  -0.180  -0.390        0
  1912  2652-17-24     -2   38   53   0.240  -0.480        0
  1913  2652-22-19     -2   38   53   0.240  -0.480        0
  1914  2652-27-33     -2   38   53   0.240  -0.480        0
  1915  2652-42-362    -2   38   53   0.240  -0.480        0
  1916  2634-66-19      1   39   51  -0.410   0.250        0
  1917  2633-56-23      1   39   52  -0.410  -0.490        0
  1918  2647-1-51       1   38   51   0.280  -0.270        0
  1919  2613-56-26     -2   40   52  -0.070  -0.430        0
  1920  2622-11-34     -2   39   52   0.320   0.480        0
  1921  2622-17-3      -2   39   52   0.320   0.480        0
  1922  2622-22-25     -2   39   52   0.320   0.480        0
  1923  2622-27-11     -2   39   52   0.320   0.480        0
  1924  2622-32-46     -2   39   52   0.320   0.480        0
  1925  2625-42-362    -2   39   53   0.240  -0.490        0
  1926  2605-42-362     2   40   52   0.000   0.480        0
  1927  2605-48-362     2   40   52   0.000   0.480        0
  1928  2605-55-343     2   40   52   0.000   0.480        0
  1929  2605-61-38      2   40   52   0.000   0.480        0
  1930  2605-66-49      2   40   52   0.000   0.480        0
  1931  2605-71-40      2   40   52   0.000   0.480        0
  1932  2605-71-350     2   40   52   0.000   0.480        0
  1933  2570-8-37       1   40   52   0.040   0.220        0
  1934  2570-12-46      1   40   52   0.040   0.220        0
  1935  2570-17-24      1   40   52   0.040   0.220        0
  1936  2570-22-25      1   40   52   0.040   0.220        0
  1937  2560-22-25     -3   41   51   0.270   0.470        0
  1938  2560-27-34     -3   41   51   0.270   0.470        0
  1939  2560-32-36     -3   41   51   0.270   0.470        0
  1940  2560-42-363    -3   41   51   0.270   0.470        0
  1941  2545-56-20      2   42   51  -0.040   0.380        0
  1942  2544-1-50       1   42   52  -0.010   0.250        0
  1943  2544-6-39       1   42   52  -0.010   0.250        0
  1944  2576-16-25      1   41   55  -0.270  -0.440        0
  1945  2576-22-25      1   41   55  -0.270  -0.440        0
  1946  2576-26-28      1   41   55  -0.270  -0.440        0
  1947  2581-66-26      2   41   55  -0.340  -0.440        0
  1948  2581-71-62      2   41   55  -0.340  -0.440        0
  1949  2600-17-24     -2   40   54   0.230  -0.450        0
  1950  2600-22-25     -2   40   54   0.230  -0.450        0
  1951  2600-27-54     -2   40   54   0.230  -0.450        0
  1952  2600-32-36     -2   40   54   0.230  -0.450        0
  1953  2600-38-32     -2   40   54   0.230  -0.450        0
  1954  2600-39-32     -2   40   54   0.230  -0.450        0
  1955  2600-48-362    -2   40   54   0.230  -0.450        0
  1956  2600-55-343    -2   40   54   0.230  -0.450        0
  1957  2600-61-40     -2   40   54   0.230  -0.450        0
  1958  2600-66-49     -2   40   54   0.230  -0.450        0
  1959  2600-71-40     -2   40   54   0.230  -0.450        0
  1960  2600-71-350    -2   40   54   0.230  -0.450        0
  1961  2566-66-26      2   41   53   0.110   0.360        0
  1962  2562-48-335    -2   41   53   0.150   0.260        0
  1963  2562-56-25     -2   41   53   0.150   0.260        0
  1964  2543-1-2        1   42   53   0.030  -0.290        0
  1965  2546-7-316      1   42   54   0.070  -0.410        0
  1966  2546-12-46      1   42   54   0.070  -0.410        0
  1967  2546-17-33      1   42   54   0.070  -0.410        0
  1968  2546-22-25      1   42   54   0.070  -0.410        0
  1969  2546-27-11      1   42   54   0.070  -0.410        0
  1970  2546-32-46      1   42   54   0.070  -0.410        0
  1971  2546-38-46      1   42   54   0.070  -0.410        0
  1972  2546-39-32      1   42   54   0.070  -0.410        0
  1973  2546-56-25      1   42   54   0.070  -0.410        0
  1974  2541-17-3       2   42   54   0.190  -0.380        0
  1975  2541-27-11      2   42   54   0.190  -0.380        0
  1976  2548-42-362     2   42   54  -0.230  -0.320        0
  1977  2548-48-362     2   42   54  -0.230  -0.320        0
  1978  2548-55-347     2   42   54  -0.230  -0.320        0
  1979  2548-60-362     2   42   54  -0.230  -0.320        0
  1980  2547-66-48      1   42   54  -0.230  -0.220        0
  1981  2547-71-12      1   42   54  -0.230  -0.220        0
  1982  2547-71-350     1   42   54  -0.230  -0.220        0
  1983  2551-42-352    -2   42   55  -0.350  -0.440        0
  1984  2551-56-24     -2   42   55  -0.350  -0.440        0
  1985  2551-66-26     -2   42   55  -0.350  -0.440        0
  1986  2550-42-362     1   42   56  -0.390  -0.460        0
  1987  2550-56-24      1   42   56  -0.390  -0.460        0
  1988  2550-61-54      1   42   56  -0.390  -0.460        0
  1989  2550-66-26      1   42   56  -0.390  -0.460        0
  1990  2542-22-25     -2   42   56   0.000  -0.460        0
  1991  2542-27-54     -2   42   56   0.000  -0.460        0
  1992  2542-66-26     -2   42   56   0.000  -0.460        0
  1993  2552-56-24      2   42   56  -0.460   0.410        0
  1994  2552-61-54      2   42   56  -0.460   0.410        0
  1995  2552-66-33      2   42   56  -0.460   0.410        0
  1996  2552-71-62      2   42   56  -0.460   0.410        0
  1997  2598-1-274      1   40   57   0.310   0.490        0
  1998  2598-6-284      1   40   57   0.310   0.490        0
  1999  2598-11-62      1   40   57   0.310   0.490        0
  2000  2584-12-325     2   41   59  -0.380  -0.410        0
  2001  2584-17-3       2   41   59  -0.380  -0.410        0
  2002  2584-22-31      2   41   59  -0.380  -0.410        0
  2003  2584-27-11      2   41   59  -0.380  -0.410        0
  2004  2540-48-357     2   42   60   0.190   0.050        0
  2005  2540-55-343     2   42   60   0.190   0.050        0
  2006  2540-61-38      2   42   60   0.190   0.050        0
  2007  2540-66-59      2   42   60   0.190   0.050        0
  2008  2540-71-40      2   42   60   0.190   0.050        0
  2009  2540-71-365     2   42   60   0.190   0.050        0
  2010  2597-42-335     2   40   62   0.350  -0.160        0
  2011  2597-48-357     2   40   62   0.350  -0.160        0
  2012  2597-55-343     2   40   62   0.350  -0.160        0
  2013  2597-61-38      2   40   62   0.350  -0.160        0
  2014  2597-66-59      2   40   62   0.350  -0.160        0
  2015  2597-71-40      2   40   62   0.350  -0.160        0
  2016  2597-71-365     2   40   62   0.350  -0.160        0
  2017  2565-48-342     2   41   62   0.080   0.000        0
  2018  2575-55-343     2   41   61  -0.230   0.450        0
  2019  2539-11-34      2   42   61   0.190  -0.170        0
  2020  2539-22-79      2   42   61   0.190  -0.170        0
  2021  2539-32-46      2   42   61   0.190  -0.170        0
  2022  2539-37-34      2   42   61   0.190  -0.170        0
  2023  2539-48-337     2   42   61   0.190  -0.170        0
  2024  2539-60-321     2   42   61   0.190  -0.170        0
  2025  2539-65-299     2   42   61   0.190  -0.170        0
  2026  2539-71-13      2   42   61   0.190  -0.170        0
  2027  2539-71-365     2   42   61   0.190  -0.170        0
  2028  2478-61-31      2   44   61  -0.210   0.130        0
  2029  2478-66-1       2   44   61  -0.210   0.130        0
  2030  2478-71-41      2   44   61  -0.210   0.130        0
  2031  2478-71-365     2   44   61  -0.210   0.130        0
  2032  2474-16-298     1   44   62  -0.090   0.070        0
  2033  2474-22-32      1   44   62  -0.090   0.070        0
  2034  2474-27-10      1   44   62  -0.090   0.070        0
  2035  2531-42-362     2   42   60   0.380  -0.210        0
  2036  2531-48-357     2   42   60   0.380  -0.210        0
  2037  2531-55-343     2   42   60   0.380  -0.210        0
  2038  2531-61-38      2   42   60   0.380  -0.210        0
  2039  2531-66-59      2   42   60   0.380  -0.210        0
  2040  2531-71-40      2   42   60   0.380  -0.210        0
  2041  2531-71-365     2   42   60   0.380  -0.210        0
  2042  2504-71-63      2   43   60   0.110   0.120        0
  2043  2520-71-62      2   43   59  -0.390   0.140        0
  2044  2482-42-362    -2   44   60  -0.360  -0.500        0
  2045  2482-48-362    -2   44   60  -0.360  -0.500        0
  2046  2482-55-343    -2   44   60  -0.360  -0.500        0
  2047  2482-61-40     -2   44   60  -0.360  -0.500        0
  2048  2482-66-45     -2   44   60  -0.360  -0.500        0
  2049  2482-71-26     -2   44   60  -0.360  -0.500        0
  2050  2482-71-365    -2   44   60  -0.360  -0.500        0
  2051  2470-55-343     2   44   60  -0.010   0.050        0
  2052  2470-66-45      2   44   60  -0.010   0.050        0
  2053  2470-71-41      2   44   60  -0.010   0.050        0
  2054  2470-71-365     2   44   60  -0.010   0.050        0
  2055  2473-55-343     2   44   60  -0.010   0.050        0
  2056  2476-48-362     2   44   60   0.060   0.090        0
  2057  2476-55-343     2   44   60   0.060   0.090        0
  2058  2476-61-32      2   44   60   0.060   0.090        0
  2059  2476-66-45      2   44   60   0.060   0.090        0
  2060  2476-71-41      2   44   60   0.060   0.090        0
  2061  2476-71-365     2   44   60   0.060   0.090        0
  2062  2523-37-1       1   43   58  -0.430  -0.090        0
  2063  2512-71-62      2   43   58  -0.010  -0.190        0
  2064  2513-17-24      1   43   57  -0.010   0.030        0
  2065  2513-22-25      1   43   57  -0.010   0.030        0
  2066  2513-26-362     1   43   57  -0.010   0.030        0
  2067  2487-42-355     2   44   57  -0.470   0.450        0
  2068  2467-12-46      1   44   57   0.060  -0.030        0
  2069  2467-17-3       1   44   57   0.060  -0.030        0
  2070  2467-22-25      1   44   57   0.060  -0.030        0
  2071  2467-27-54      1   44   57   0.060  -0.030        0
  2072  2467-32-46      1   44   57   0.060  -0.030        0
  2073  2467-38-32      1   44   57   0.060  -0.030        0
  2074  2466-2-128      2   44   57   0.060   0.450        0
  2075  2496-42-335     2   43   58   0.300   0.490        0
  2076  2496-48-362     2   43   58   0.300   0.490        0
  2077  2496-55-343     2   43   58   0.300   0.490        0
  2078  2496-61-32      2   43   58   0.300   0.490        0
  2079  2496-66-45      2   43   58   0.300   0.490        0
  2080  2496-71-40      2   43   58   0.300   0.490        0
  2081  2496-71-365     2   43   58   0.300   0.490        0
  2082  2486-42-362     2   44   58  -0.320   0.270        0
  2083  2486-48-362     2   44   58  -0.320   0.270        0
  2084  2486-55-343     2   44   58  -0.320   0.270        0
  2085  2486-60-344     2   44   58  -0.320   0.270        0
  2086  2486-66-45      2   44   58  -0.320   0.270        0
  2087  2486-71-26      2   44   58  -0.320   0.270        0
  2088  2486-71-365     2   44   58  -0.320   0.270        0
  2089  2499-33-95     -2   43   58   0.370  -0.380        0
  2090  2493-66-33      2   43   58   0.340  -0.160        0
  2091  2490-66-45      2   43   58   0.450  -0.420        0
  2092  2490-71-26      2   43   58   0.450  -0.420        0
  2093  2490-71-365     2   43   58   0.450  -0.420        0
  2094  2538-17-24     -2   42   57   0.230  -0.460        0
  2095  2538-22-25     -2   42   57   0.230  -0.460        0
  2096  2538-27-47     -2   42   57   0.230  -0.460        0
  2097  2538-32-46     -2   42   57   0.230  -0.460        0
  2098  2538-37-34     -2   42   57   0.230  -0.460        0
  2099  2538-42-363    -2   42   57   0.230  -0.460        0
  2100  2538-48-338    -2   42   57   0.230  -0.460        0
  2101  2538-56-24     -2   42   57   0.230  -0.460        0
  2102  2538-60-321    -2   42   57   0.230  -0.460        0
  2103  2534-56-24      2   42   56   0.340   0.320        0
  2104  2534-66-19      2   42   56   0.340   0.320        0
  2105  2532-56-24      2   42   56   0.380  -0.170        0
  2106  2500-71-62      2   43   56   0.110   0.450        0
  2107  2517-48-362     2   43   55  -0.160   0.180        0
  2108  2517-55-343     2   43   55  -0.160   0.180        0
  2109  2517-61-32      2   43   55  -0.160   0.180        0
  2110  2517-66-40      2   43   55  -0.160   0.180        0
  2111  2517-71-350     2   43   55  -0.160   0.180        0
  2112  2514-17-3       1   43   55   0.070   0.410        0
  2113  2475-22-25     -2   44   55  -0.130   0.050        0
  2114  2475-27-11     -2   44   55  -0.130   0.050        0
  2115  2475-43-32     -2   44   55  -0.130   0.050        0
  2116  2475-48-362    -2   44   55  -0.130   0.050        0
  2117  2475-55-347    -2   44   55  -0.130   0.050        0
  2118  2475-60-362    -2   44   55  -0.130   0.050        0
  2119  2475-66-1      -2   44   55  -0.130   0.050        0
  2120  2475-71-350    -2   44   55  -0.130   0.050        0
  2121  2480-22-25     -2   44   57  -0.240  -0.460        0
  2122  2480-42-362    -2   44   57  -0.240  -0.460        0
  2123  2480-48-362    -2   44   57  -0.240  -0.460        0
  2124  2480-56-5      -2   44   57  -0.240  -0.460        0
  2125  2480-61-5      -2   44   57  -0.240  -0.460        0
  2126  2480-66-40     -2   44   57  -0.240  -0.460        0
  2127  2480-71-26     -2   44   57  -0.240  -0.460        0
  2128  2480-71-350    -2   44   57  -0.240  -0.460        0
  2129  2471-17-3       1   44   56   0.020   0.280        0
  2130  2471-27-11      1   44   56   0.020   0.280        0
  2131  2536-48-362    -2   42   55   0.340  -0.410        0
  2132  2536-55-347    -2   42   55   0.340  -0.410        0
  2133  2536-60-362    -2   42   55   0.340  -0.410        0
  2134  2536-66-40     -2   42   55   0.340  -0.410        0
  2135  2536-71-350    -2   42   55   0.340  -0.410        0
  2136  2528-42-362    -2   42   54   0.420  -0.350        0
  2137  2528-48-362    -2   42   54   0.420  -0.350        0
  2138  2528-55-347    -2   42   54   0.420  -0.350        0
  2139  2528-60-362    -2   42   54   0.420  -0.350        0
  2140  2528-66-48     -2   42   54   0.420  -0.350        0
  2141  2528-71-350    -2   42   54   0.420  -0.350        0
  2142  2509-17-3       2   43   54   0.070   0.500        0
  2143  2509-31-351     2   43   54   0.070   0.500        0
  2144  2521-42-363    -2   43   53  -0.390   0.490        0
  2145  2521-48-335    -2   43   53  -0.390   0.490        0
  2146  2521-56-25     -2   43   53  -0.390   0.490        0
  2147  2521-61-56     -2   43   53  -0.390   0.490        0
  2148  2505-56-25      2   43   54   0.100  -0.410        0
  2149  2506-48-335    -2   43   53   0.140   0.490        0
  2150  2506-56-25     -2   43   53   0.140   0.490        0
  2151  2506-61-56     -2   43   53   0.140   0.490        0
  2152  2506-66-18     -2   43   53   0.140   0.490        0
  2153  2506-71-11     -2   43   53   0.140   0.490        0
  2154  2506-71-365    -2   43   53   0.140   0.490        0
  2155  2488-1-357      2   44   54  -0.470   0.460        0
  2156  2488-7-316      2   44   54  -0.470   0.460        0
  2157  2488-10-283     2   44   54  -0.470   0.460        0
  2158  2488-17-33      2   44   54  -0.470   0.460        0
  2159  2488-22-25      2   44   54  -0.470   0.460        0
  2160  2488-27-47      2   44   54  -0.470   0.460        0
  2161  2488-37-27      2   44   54  -0.470   0.460        0
  2162  2472-1-357      1   44   54   0.140   0.070        0
  2163  2472-8-36       1   44   54   0.140   0.070        0
  2164  2472-12-50      1   44   54   0.140   0.070        0
  2165  2472-17-33      1   44   54   0.140   0.070        0
  2166  2537-22-25      2   42   52   0.260  -0.270        0
  2167  2537-27-47      2   42   52   0.260  -0.270        0
  2168  2537-32-46      2   42   52   0.260  -0.270        0
  2169  2537-37-34      2   42   52   0.260  -0.270        0
  2170  2537-42-363     2   42   52   0.260  -0.270        0
  2171  2537-56-20      2   42   52   0.260  -0.270        0
  2172  2497-42-363     1   43   51   0.290  -0.270        0
  2173  2497-48-337     1   43   51   0.290  -0.270        0
  2174  2497-56-20      1   43   51   0.290  -0.270        0
  2175  2434-48-362     2   45   53  -0.370  -0.450        0
  2176  2434-55-346     2   45   53  -0.370  -0.450        0
  2177  2434-61-6       2   45   53  -0.370  -0.450        0
  2178  2434-66-48      2   45   53  -0.370  -0.450        0
  2179  2434-71-12      2   45   53  -0.370  -0.450        0
  2180  2434-71-350     2   45   53  -0.370  -0.450        0
  2181  2355-42-362    -2   46   51   0.010   0.340        0
  2182  2355-48-362    -2   46   51   0.010   0.340        0
  2183  2355-55-343    -2   46   51   0.010   0.340        0
  2184  2355-61-40     -2   46   51   0.010   0.340        0
  2185  2355-71-47      3   46   51   0.010   0.340        0
  2186  2355-71-350     3   46   51   0.010   0.340        0
  2187  2428-56-38      2   45   55  -0.330  -0.370        0
  2188  2428-66-48      2   45   55  -0.330  -0.370        0
  2189  2428-71-5       2   45   55  -0.330  -0.370        0
  2190  2428-71-365     2   45   55  -0.330  -0.370        0
  2191  2433-66-48      2   45   54  -0.360  -0.120        0
  2192  2433-71-5       2   45   54  -0.360  -0.120        0
  2193  2433-71-365     2   45   54  -0.360  -0.120        0
  2194  2403-48-362    -2   45   54  -0.020  -0.280        0
  2195  2403-55-343    -2   45   54  -0.020  -0.280        0
  2196  2403-66-59     -2   45   54  -0.020  -0.280        0
  2197  2403-71-47     -2   45   54  -0.020  -0.280        0
  2198  2403-71-365    -2   45   54  -0.020  -0.280        0
  2199  2410-66-59      2   45   54   0.090  -0.090        0
  2200  2410-71-47      2   45   54   0.090  -0.090        0
  2201  2410-71-365     2   45   54   0.090  -0.090        0
  2202  2462-8-38       1   44   53   0.210   0.000        0
  2203  2464-12-50      1   44   53   0.180   0.000        0
  2204  2464-17-23      1   44   53   0.180   0.000        0
  2205  2464-22-23      1   44   53   0.180   0.000        0
  2206  2459-42-362     1   44   53   0.440  -0.030        0
  2207  2459-48-362     1   44   53   0.440  -0.030        0
  2208  2409-66-48      2   45   54   0.090   0.140        0
  2209  2409-71-12      2   45   54   0.090   0.140        0
  2210  2357-12-50      2   46   54   0.090   0.100        0
  2211  2357-17-35      2   46   54   0.090   0.100        0
  2212  2357-22-23      2   46   54   0.090   0.100        0
  2213  2357-27-34      2   46   54   0.090   0.100        0
  2214  2357-37-34      2   46   54   0.090   0.100        0
  2215  2357-66-48      2   46   54   0.090   0.100        0
  2216  2357-71-12      2   46   54   0.090   0.100        0
  2217  2357-71-365     2   46   54   0.090   0.100        0
  2218  2336-61-21      2   46   54   0.090   0.100        0
  2219  2363-56-38      2   46   54  -0.100   0.490        0
  2220  2363-66-48      2   46   54  -0.100   0.490        0
  2221  2363-71-5       2   46   54  -0.100   0.490        0
  2222  2363-71-365     2   46   54  -0.100   0.490        0
  2223  2460-22-25     -2   44   55   0.250   0.340        0
  2224  2460-48-362    -2   44   55   0.250   0.340        0
  2225  2460-55-343    -2   44   55   0.250   0.340        0
  2226  2460-61-20     -2   44   55   0.250   0.340        0
  2227  2460-66-49     -2   44   55   0.250   0.340        0
  2228  2460-71-41     -2   44   55   0.250   0.340        0
  2229  2460-71-350    -2   44   55   0.250   0.340        0
  2230  2399-56-38      2   45   55   0.320   0.050        0
  2231  2399-66-48      2   45   55   0.320   0.050        0
  2232  2399-71-5       2   45   55   0.320   0.050        0
  2233  2399-71-365     2   45   55   0.320   0.050        0
  2234  2373-56-6      -3   46   55  -0.450   0.050        0
  2235  2373-61-6      -3   46   55  -0.450   0.050        0
  2236  2373-66-48     -3   46   55  -0.450   0.050        0
  2237  2373-71-12     -3   46   55  -0.450   0.050        0
  2238  2373-71-365    -3   46   55  -0.450   0.050        0
  2239  2356-56-38      2   46   55  -0.020   0.470        0
  2240  2356-66-42      2   46   55  -0.020   0.470        0
  2241  2356-71-5       2   46   55  -0.020   0.470        0
  2242  2356-71-365     2   46   55  -0.020   0.470        0
  2243  2389-8-37       1   46   56  -0.480   0.150        0
  2244  2389-12-38      1   46   56  -0.480   0.150        0
  2245  2388-17-34      1   46   56  -0.480   0.190        0
  2246  2388-22-25      1   46   56  -0.480   0.190        0
  2247  2388-32-46      1   46   56  -0.480   0.190        0
  2248  2388-38-32      1   46   56  -0.480   0.190        0
  2249  2343-12-50     -2   46   56   0.090  -0.330        0
  2250  2343-17-35     -2   46   56   0.090  -0.330        0
  2251  2343-22-24     -2   46   56   0.090  -0.330        0
  2252  2343-61-21     -2   46   56   0.090  -0.330        0
  2253  2427-42-363    -2   45   58  -0.360   0.040        0
  2254  2427-48-337    -2   45   58  -0.360   0.040        0
  2255  2427-61-20     -2   45   58  -0.360   0.040        0
  2256  2427-66-31     -2   45   58  -0.360   0.040        0
  2257  2418-10-262     1   45   58   0.020  -0.290        0
  2258  2408-10-262     1   45   58   0.100   0.460        0
  2259  2431-7-316      1   45   57  -0.360   0.420        0
  2260  2431-12-38      1   45   57  -0.360   0.420        0
  2261  2446-22-25     -2   45   57  -0.360   0.450        0
  2262  2447-7-32       1   44   57   0.480  -0.290        0
  2263  2432-7-316      1   45   57  -0.360   0.060        0
  2264  2432-12-33      1   45   57  -0.360   0.060        0
  2265  2432-22-1       1   45   57  -0.360   0.060        0
  2266  2432-42-363     1   45   57  -0.360   0.060        0
  2267  2405-16-293     1   45   58   0.170  -0.450        0
  2268  2383-12-50      1   46   58  -0.330   0.270        0
  2269  2383-17-24      1   46   58  -0.330   0.270        0
  2270  2383-22-24      1   46   58  -0.330   0.270        0
  2271  2383-27-11      1   46   58  -0.330   0.270        0
  2272  2383-32-48      1   46   58  -0.330   0.270        0
  2273  2387-61-20     -2   46   58  -0.330   0.270        0
  2274  2387-66-28     -2   46   58  -0.330   0.270        0
  2275  2387-71-54     -2   46   58  -0.330   0.270        0
  2276  2372-27-47      2   46   58  -0.330  -0.380        0
  2277  2372-42-363     2   46   58  -0.330  -0.380        0
  2278  2372-56-19      2   46   58  -0.330  -0.380        0
  2279  2372-71-54      2   46   58  -0.330  -0.380        0
  2280  2332-61-20     -2   46   58   0.130   0.070        0
  2281  2332-66-28     -2   46   58   0.130   0.070        0
  2282  2332-71-54     -2   46   58   0.130   0.070        0
  2283  2437-22-24      2   45   60  -0.440   0.440        0
  2284  2437-27-15      2   45   60  -0.440   0.440        0
  2285  2437-32-48      2   45   60  -0.440   0.440        0
  2286  2438-12-306     1   45   60  -0.440  -0.300        0
  2287  2438-16-298     1   45   60  -0.440  -0.300        0
  2288  2430-42-363    -2   45   60  -0.440  -0.430        0
  2289  2430-48-337    -2   45   60  -0.440  -0.430        0
  2290  2430-56-19     -2   45   60  -0.440  -0.430        0
  2291  2430-66-28     -2   45   60  -0.440  -0.430        0
  2292  2430-71-54     -2   45   60  -0.440  -0.430        0
  2293  2444-10-264     1   45   60  -0.480  -0.080        0
  2294  2424-10-265     1   45   60  -0.210  -0.080        0
  2295  2425-10-265     1   45   60  -0.250   0.180        0
  2296  2414-10-263     1   45   60   0.060   0.180        0
  2297  2458-42-362    -2   44   59   0.220  -0.050        0
  2298  2458-48-362    -2   44   59   0.220  -0.050        0
  2299  2458-56-32     -2   44   59   0.220  -0.050        0
  2300  2458-61-20     -2   44   59   0.220  -0.050        0
  2301  2458-66-49     -2   44   59   0.220  -0.050        0
  2302  2458-71-41     -2   44   59   0.220  -0.050        0
  2303  2458-71-365    -2   44   59   0.220  -0.050        0
  2304  2439-42-363    -2   45   59  -0.440   0.010        0
  2305  2439-48-337    -2   45   59  -0.440   0.010        0
  2306  2439-56-19     -2   45   59  -0.440   0.010        0
  2307  2439-61-20     -2   45   59  -0.440   0.010        0
  2308  2439-66-31     -2   45   59  -0.440   0.010        0
  2309  2415-1-52       1   45   59   0.170   0.470        0
  2310  2407-27-47     -2   45   60   0.100  -0.470        0
  2311  2407-61-20     -2   45   60   0.100  -0.470        0
  2312  2407-66-28     -2   45   60   0.100  -0.470        0
  2313  2407-71-54     -2   45   60   0.100  -0.470        0
  2314  2402-10-263     1   45   59   0.290  -0.310        0
  2315  2394-56-26      1   45   60   0.360   0.120        0
  2316  2394-61-61      1   45   60   0.360   0.120        0
  2317  2394-66-25      1   45   60   0.360   0.120        0
  2318  2386-60-341     2   46   60  -0.480  -0.370        0
  2319  2386-66-49      2   46   60  -0.480  -0.370        0
  2320  2386-71-40      2   46   60  -0.480  -0.370        0
  2321  2386-71-365     2   46   60  -0.480  -0.370        0
  2322  2453-27-47      1   44   62   0.370   0.130        0
  2323  2413-2-121      2   45   62   0.060  -0.350        0
  2324  2412-12-304    -2   45   62   0.060  -0.090        0
  2325  2412-16-298    -2   45   62   0.060  -0.090        0
  2326  2412-16-364    -2   45   62   0.060  -0.090        0
  2327  2398-1-357      1   45   62   0.320   0.130        0
  2328  2398-7-2        1   45   62   0.320   0.130        0
  2329  2395-42-363    -2   45   62   0.360   0.130        0
  2330  2395-48-337    -2   45   62   0.360   0.130        0
  2331  2385-42-363    -2   46   62  -0.480   0.000        0
  2332  2385-48-362    -2   46   62  -0.480   0.000        0
  2333  2385-55-346    -2   46   62  -0.480   0.000        0
  2334  2385-61-31     -2   46   62  -0.480   0.000        0
  2335  2385-66-1      -2   46   62  -0.480   0.000        0
  2336  2385-71-41     -2   46   62  -0.480   0.000        0
  2337  2385-71-365    -2   46   62  -0.480   0.000        0
  2338  2282-12-46      1   47   62  -0.450   0.460        0
  2339  2282-17-24      1   47   62  -0.450   0.460        0
  2340  2282-22-24      1   47   62  -0.450   0.460        0
  2341  2282-32-48      1   47   62  -0.450   0.460        0
  2342  2326-26-293    -3   46   62   0.240  -0.260        0
  2343  2326-42-363    -3   46   62   0.240  -0.260        0
  2344  2326-48-362    -3   46   62   0.240  -0.260        0
  2345  2326-56-33     -3   46   62   0.240  -0.260        0
  2346  2326-61-41     -3   46   62   0.240  -0.260        0
  2347  2326-66-45     -3   46   62   0.240  -0.260        0
  2348  2326-71-41     -3   46   62   0.240  -0.260        0
  2349  2326-71-365    -3   46   62   0.240  -0.260        0
  2350  2260-56-26      1   47   62  -0.300  -0.190        0
  2351  2260-61-61      1   47   62  -0.300  -0.190        0
  2352  2260-66-25      1   47   62  -0.300  -0.190        0
  2353  2260-71-61      1   47   62  -0.300  -0.190        0
  2354  2202-71-61      2   48   61  -0.490  -0.130        0
  2355  2127-42-335    -2   48   61   0.120   0.090        0
  2356  2283-7-311     -2   47   59  -0.450   0.440        0
  2357  2283-17-24     -2   47   59  -0.450   0.440        0
  2358  2283-22-24     -2   47   59  -0.450   0.440        0
  2359  2283-27-47     -2   47   59  -0.450   0.440        0
  2360  2283-32-48     -2   47   59  -0.450   0.440        0
  2361  2283-35-15     -2   47   59  -0.450   0.440        0
  2362  2291-37-32     -2   46   60   0.470  -0.500        0
  2363  2291-48-338    -2   46   60   0.470  -0.500        0
  2364  2291-60-321    -2   46   60   0.470  -0.500        0
  2365  2291-71-13     -2   46   60   0.470  -0.500        0
  2366  2291-71-365    -2   46   60   0.470  -0.500        0
  2367  2304-7-311      1   46   59   0.200  -0.180        0
  2368  2304-12-38      1   46   59   0.200  -0.180        0
  2369  2304-17-3       1   46   59   0.200  -0.180        0
  2370  2304-22-24      1   46   59   0.200  -0.180        0
  2371  2304-27-11      1   46   59   0.200  -0.180        0
  2372  2237-7-79       2   47   60   0.160  -0.470        0
  2373  2237-12-38      2   47   60   0.160  -0.470        0
  2374  2237-17-24      2   47   60   0.160  -0.470        0
  2375  2237-22-24      2   47   60   0.160  -0.470        0
  2376  2237-27-16      2   47   60   0.160  -0.470        0
  2377  2218-56-34      2   47   59   0.430   0.080        0
  2378  2218-66-59      2   47   59   0.430   0.080        0
  2379  2218-71-54      2   47   59   0.430   0.080        0
  2380  2218-71-365     2   47   59   0.430   0.080        0
  2381  2212-26-349    -2   48   60  -0.420  -0.470        0
  2382  2212-42-362    -2   48   60  -0.420  -0.470        0
  2383  2212-61-20     -2   48   60  -0.420  -0.470        0
  2384  2212-66-59     -2   48   60  -0.420  -0.470        0
  2385  2212-71-54     -2   48   60  -0.420  -0.470        0
  2386  2212-71-365    -2   48   60  -0.420  -0.470        0
  2387  2213-56-34      2   47   59   0.470   0.400        0
  2388  2213-66-59      2   47   59   0.470   0.400        0
  2389  2213-71-54      2   47   59   0.470   0.400        0
  2390  2213-71-365     2   47   59   0.470   0.400        0
  2391  2177-42-363    -2   48   59  -0.300  -0.410        0
  2392  2177-48-337     2   48   59  -0.300  -0.410        0
  2393  2177-56-19      2   48   59  -0.300  -0.410        0
  2394  2177-66-31      2   48   59  -0.300  -0.410        0
  2395  2177-71-54      2   48   59  -0.300  -0.410        0
  2396  2175-6-283      2   48   60  -0.040  -0.500        0
  2397  2175-12-51      2   48   60  -0.040  -0.500        0
  2398  2175-17-24      2   48   60  -0.040  -0.500        0
  2399  2175-22-24      2   48   60  -0.040  -0.500        0
  2400  2175-27-47      2   48   60  -0.040  -0.500        0
  2401  2176-56-34      2   48   59  -0.230   0.080        0
  2402  2176-66-59      2   48   59  -0.230   0.080        0
  2403  2176-71-54      2   48   59  -0.230   0.080        0
  2404  2176-71-365     2   48   59  -0.230   0.080        0
  2405  2154-56-19     -2   48   60  -0.040  -0.470        0
  2406  2154-61-20     -2   48   60  -0.040  -0.470        0
  2407  2154-66-28     -2   48   60  -0.040  -0.470        0
  2408  2154-71-54     -2   48   60  -0.040  -0.470        0
  2409  2232-56-26      1   47   60   0.240   0.380        0
  2410  2232-61-20      1   47   60   0.240   0.380        0
  2411  2232-66-25      1   47   60   0.240   0.380        0
  2412  2232-71-53      1   47   60   0.240   0.380        0
  2413  2211-56-26      2   48   60  -0.300   0.310        0
  2414  2211-61-20      2   48   60  -0.300   0.310        0
  2415  2211-66-25      2   48   60  -0.300   0.310        0
  2416  2211-71-53      2   48   60  -0.300   0.310        0
  2417  2233-56-26      1   47   60   0.310  -0.240        0
  2418  2233-61-20      1   47   60   0.310  -0.240        0
  2419  2170-56-26      2   48   60  -0.190  -0.170        0
  2420  2170-66-25      2   48   60  -0.190  -0.170        0
  2421  2131-12-290     1   48   60   0.120   0.410        0
  2422  2131-56-26      2   48   60   0.120   0.410        0
  2423  2131-61-61      2   48   60   0.120   0.410        0
  2424  2131-66-25      2   48   60   0.120   0.410        0
  2425  2131-71-53      2   48   60   0.120   0.410        0
  2426  2137-42-363    -2   48   58   0.040  -0.450        0
  2427  2137-48-338    -2   48   58   0.040  -0.450        0
  2428  2137-56-24     -2   48   58   0.040  -0.450        0
  2429  2137-66-19     -2   48   58   0.040  -0.450        0
  2430  2137-71-60     -2   48   58   0.040  -0.450        0
  2431  2289-11-38      2   47   56  -0.490   0.150        0
  2432  2289-17-33      2   47   56  -0.490   0.150        0
  2433  2289-22-24      2   47   56  -0.490   0.150        0
  2434  2289-32-32      2   47   56  -0.490   0.150        0
  2435  2241-10-33      2   47   56   0.120   0.250        0
  2436  2241-17-33      2   47   56   0.120   0.250        0
  2437  2241-22-24      2   47   56   0.120   0.250        0
  2438  2241-42-363     2   47   56   0.120   0.250        0
  2439  2241-48-334     2   47   56   0.120   0.250        0
  2440  2241-56-26      2   47   56   0.120   0.250        0
  2441  2241-61-21      2   47   56   0.120   0.250        0
  2442  2236-1-357      2   47   56   0.200   0.380        0
  2443  2236-6-341      2   47   56   0.200   0.380        0
  2444  2236-12-59      2   47   56   0.200   0.380        0
  2445  2236-16-313     2   47   56   0.200   0.380        0
  2446  2236-22-32      2   47   56   0.200   0.380        0
  2447  2327-71-365     2   46   56   0.240  -0.400        0
  2448  2306-71-54      2   46   55   0.360   0.310        0
  2449  2306-71-365     2   46   55   0.360   0.310        0
  2450  2264-56-38      2   47   56  -0.300  -0.430        0
  2451  2264-66-48      2   47   56  -0.300  -0.430        0
  2452  2264-71-5       2   47   56  -0.300  -0.430        0
  2453  2264-71-365     2   47   56  -0.300  -0.430        0
  2454  2307-71-54      1   46   55   0.360  -0.050        0
  2455  2307-71-365     1   46   55   0.360  -0.050        0
  2456  2292-56-38      2   46   55   0.470  -0.280        0
  2457  2292-66-42      2   46   55   0.470  -0.280        0
  2458  2293-56-38      2   46   55   0.470  -0.310        0
  2459  2293-66-48      2   46   55   0.470  -0.310        0
  2460  2293-71-12      2   46   55   0.470  -0.310        0
  2461  2293-71-365     2   46   55   0.470  -0.310        0
  2462  2272-55-346     2   47   55  -0.370  -0.080        0
  2463  2272-71-54      1   47   55  -0.370  -0.080        0
  2464  2272-71-365     1   47   55  -0.370  -0.080        0
  2465  2268-66-3       2   47   55  -0.340  -0.210        0
  2466  2268-71-365     2   47   55  -0.340  -0.210        0
  2467  2242-56-38      2   47   55   0.080  -0.180        0
  2468  2242-66-48      2   47   55   0.080  -0.180        0
  2469  2242-71-365     2   47   55   0.080  -0.180        0
  2470  2257-56-38      2   47   55  -0.220   0.210        0
  2471  2257-66-48      2   47   55  -0.220   0.210        0
  2472  2258-56-38      2   47   55  -0.220   0.180        0
  2473  2258-66-48      2   47   55  -0.220   0.180        0
  2474  2187-42-362     2   48   55  -0.380  -0.250        0
  2475  2187-48-336     2   48   55  -0.380  -0.250        0
  2476  2187-56-5       2   48   55  -0.380  -0.250        0
  2477  2187-61-6       2   48   55  -0.380  -0.250        0
  2478  2187-66-48      2   48   55  -0.380  -0.250        0
  2479  2187-71-54      2   48   55  -0.380  -0.250        0
  2480  2187-71-349     2   48   55  -0.380  -0.250        0
  2481  2234-56-38      2   47   57   0.280  -0.460        0
  2482  2234-66-48      2   47   57   0.280  -0.460        0
  2483  2226-66-48      1   47   56   0.350  -0.110        0
  2484  2155-56-38      2   48   56  -0.040  -0.110        0
  2485  2155-66-48      2   48   56  -0.040  -0.110        0
  2486  2333-56-38      2   46   55   0.170  -0.470        0
  2487  2333-66-48      2   46   55   0.170  -0.470        0
  2488  2308-56-38      2   46   54   0.360   0.490        0
  2489  2308-66-48      2   46   54   0.360   0.490        0
  2490  2308-71-21      2   46   54   0.360   0.490        0
  2491  2308-71-365     2   46   54   0.360   0.490        0
  2492  2329-56-38      2   46   54   0.240   0.400        0
  2493  2329-66-48      2   46   54   0.240   0.400        0
  2494  2329-71-12      2   46   54   0.240   0.400        0
  2495  2329-71-365     2   46   54   0.240   0.400        0
  2496  2319-66-48      2   46   55   0.280  -0.380        0
  2497  2320-56-38      2   46   55   0.280  -0.410        0
  2498  2320-66-48      2   46   55   0.280  -0.410        0
  2499  2320-71-12      2   46   55   0.280  -0.410        0
  2500  2320-71-365     2   46   55   0.280  -0.410        0
  2501  2299-55-343     2   46   54   0.430   0.330        0
  2502  2299-71-54      1   46   54   0.430   0.330        0
  2503  2299-71-365     1   46   54   0.430   0.330        0
  2504  2274-56-38      2   47   55  -0.370  -0.470        0
  2505  2274-71-54      1   47   55  -0.370  -0.470        0
  2506  2274-71-365     1   47   55  -0.370  -0.470        0
  2507  2294-56-38      2   46   55   0.470  -0.470        0
  2508  2294-66-48      2   46   55   0.470  -0.470        0
  2509  2294-71-12      2   46   55   0.470  -0.470        0
  2510  2294-71-365     2   46   55   0.470  -0.470        0
  2511  2273-56-38      2   47   55  -0.410  -0.440        0
  2512  2273-66-48      2   47   55  -0.410  -0.440        0
  2513  2273-71-21      2   47   55  -0.410  -0.440        0
  2514  2273-71-365     2   47   55  -0.410  -0.440        0
  2515  2284-66-42      2   47   54  -0.450  -0.090        0
  2516  2167-1-365      2   48   54  -0.150   0.430        0
  2517  2167-7-310      2   48   54  -0.150   0.430        0
  2518  2167-11-38      2   48   54  -0.150   0.430        0
  2519  2183-12-50      2   48   54  -0.270   0.460        0
  2520  2183-17-34      2   48   54  -0.270   0.460        0
  2521  2183-22-23      2   48   54  -0.270   0.460        0
  2522  2183-32-47      2   48   54  -0.270   0.460        0
  2523  2183-38-32      2   48   54  -0.270   0.460        0
  2524  2168-42-364     2   48   54  -0.150   0.400        0
  2525  2243-42-364    -2   47   52   0.050   0.320        0
  2526  2243-56-25     -2   47   52   0.050   0.320        0
  2527  2243-66-19     -2   47   52   0.050   0.320        0
  2528  2108-66-48      2   48   56   0.310   0.280        0
  2529  2109-12-50      2   48   56   0.230  -0.240        0
  2530  2109-17-34      2   48   56   0.230  -0.240        0
  2531  2109-22-23      2   48   56   0.230  -0.240        0
  2532  2109-42-362     2   48   56   0.230  -0.240        0
  2533  2109-48-363     2   48   56   0.230  -0.240        0
  2534  2109-55-346     2   48   56   0.230  -0.240        0
  2535  2109-60-323     2   48   56   0.230  -0.240        0
  2536  2109-66-48      2   48   56   0.230  -0.240        0
  2537  2109-71-12      2   48   56   0.230  -0.240        0
  2538  2109-71-349     2   48   56   0.230  -0.240        0
  2539  1991-7-25      -2   50   56  -0.390   0.310        0
  2540  1991-12-50     -2   50   56  -0.390   0.310        0
  2541  1991-17-34     -2   50   56  -0.390   0.310        0
  2542  1991-22-23     -2   50   56  -0.390   0.310        0
  2543  1991-27-11     -2   50   56  -0.390   0.310        0
  2544  1991-38-32     -2   50   56  -0.390   0.310        0
  2545  1991-42-365    -2   50   56  -0.390   0.310        0
  2546  1991-48-337     2   50   56  -0.390   0.310        0
  2547  1991-56-25      2   50   56  -0.390   0.310        0
  2548  1991-60-323     2   50   56  -0.390   0.310        0
  2549  2038-12-51      2   49   58  -0.350   0.360        0
  2550  2038-17-24      2   49   58  -0.350   0.360        0
  2551  2038-22-24      2   49   58  -0.350   0.360        0
  2552  2038-56-19      2   49   58  -0.350   0.360        0
  2553  2122-61-21     -2   48   57   0.190  -0.070        0
  2554  2075-56-38      2   49   57  -0.420  -0.360        0
  2555  2039-61-21     -2   49   57   0.110   0.190        0
  2556  2021-61-20     -2   49   57   0.190   0.420        0
  2557  2020-61-21     -2   49   57   0.150   0.320        0
  2558  1987-66-48      2   50   57  -0.310  -0.100        0
  2559  1958-42-362    -2   50   57  -0.010   0.100        0
  2560  1958-48-362    -2   50   57  -0.010   0.100        0
  2561  1958-55-346    -2   50   57  -0.010   0.100        0
  2562  1958-61-20     -2   50   57  -0.010   0.100        0
  2563  1958-66-1      -2   50   57  -0.010   0.100        0
  2564  1958-71-47     -2   50   57  -0.010   0.100        0
  2565  1958-71-349    -2   50   57  -0.010   0.100        0
  2566  1952-12-301    -2   50   58  -0.120  -0.420        0
  2567  1952-17-4      -2   50   58  -0.120  -0.420        0
  2568  1952-22-32     -2   50   58  -0.120  -0.420        0
  2569  1952-27-11     -2   50   58  -0.120  -0.420        0
  2570  2107-56-26     -3   48   60   0.350   0.020        0
  2571  2107-61-20     -3   48   60   0.350   0.020        0
  2572  2107-71-53     -3   48   60   0.350   0.020        0
  2573  2079-7-152      2   48   60   0.120   0.410        0
  2574  2079-61-20      2   48   60   0.120   0.410        0
  2575  2057-42-362     2   49   60  -0.160   0.180        0
  2576  2057-48-362     2   49   60  -0.160   0.180        0
  2577  2057-55-346     2   49   60  -0.160   0.180        0
  2578  2057-61-20      2   49   60  -0.160   0.180        0
  2579  2057-65-354     2   49   60  -0.160   0.180        0
  2580  2057-71-56      2   49   60  -0.160   0.180        0
  2581  2057-71-365     2   49   60  -0.160   0.180        0
  2582  2161-6-283      2   48   59  -0.070   0.440        0
  2583  2161-10-283     2   48   59  -0.070   0.440        0
  2584  2161-17-24      2   48   59  -0.070   0.440        0
  2585  2161-22-24      2   48   59  -0.070   0.440        0
  2586  2161-27-47      2   48   59  -0.070   0.440        0
  2587  2161-32-48      2   48   59  -0.070   0.440        0
  2588  2161-38-32      2   48   59  -0.070   0.440        0
  2589  2094-61-20     -3   48   60   0.420  -0.470        0
  2590  2094-66-28     -3   48   60   0.420  -0.470        0
  2591  2094-71-54     -3   48   60   0.420  -0.470        0
  2592  2059-7-311     -2   49   59  -0.270   0.080        0
  2593  2059-12-51     -2   49   59  -0.270   0.080        0
  2594  2059-17-4      -2   49   59  -0.270   0.080        0
  2595  2059-22-24     -2   49   59  -0.270   0.080        0
  2596  2059-27-47     -2   49   59  -0.270   0.080        0
  2597  2059-61-21     -2   49   59  -0.270   0.080        0
  2598  1989-42-365     1   50   59  -0.390  -0.410        0
  2599  1989-56-17      2   50   59  -0.390  -0.410        0
  2600  1989-61-20      2   50   59  -0.390  -0.410        0
  2601  1968-42-365    -2   50   59  -0.120  -0.120        0
  2602  1968-56-17     -2   50   59  -0.120  -0.120        0
  2603  1968-61-20     -2   50   59  -0.120  -0.120        0
  2604  1937-56-17      2   50   59   0.150  -0.020        0
  2605  1937-61-20      2   50   59   0.150  -0.020        0
  2606  1937-66-27      2   50   59   0.150  -0.020        0
  2607  2007-61-21      1   49   60   0.460   0.120        0
  2608  2007-66-25      1   49   60   0.460   0.120        0
  2609  1981-61-21     -2   50   60  -0.240   0.180        0
  2610  2037-66-32      1   49   62   0.040   0.230        0
  2611  2106-26-349    -2   48   61   0.310  -0.070        0
  2612  2106-32-32     -2   48   61   0.310  -0.070        0
  2613  2106-42-362    -2   48   61   0.310  -0.070        0
  2614  2106-48-362    -2   48   61   0.310  -0.070        0
  2615  2106-56-34     -2   48   61   0.310  -0.070        0
  2616  2106-61-41     -2   48   61   0.310  -0.070        0
  2617  2106-66-54     -2   48   61   0.310  -0.070        0
  2618  2106-71-41     -2   48   61   0.310  -0.070        0
  2619  2106-71-365    -2   48   61   0.310  -0.070        0
  2620  1951-12-51     -2   50   62   0.070   0.140        0
  2621  1951-17-39     -2   50   62   0.070   0.140        0
  2622  1951-22-28     -2   50   62   0.070   0.140        0
  2623  1951-38-354    -2   50   62   0.070   0.140        0
  2624  1951-42-363    -2   50   62   0.070   0.140        0
  2625  1951-48-362    -2   50   62   0.070   0.140        0
  2626  1951-55-346    -2   50   62   0.070   0.140        0
  2627  1951-61-41     -2   50   62   0.070   0.140        0
  2628  1951-66-49     -2   50   62   0.070   0.140        0
  2629  1951-71-56     -2   50   62   0.070   0.140        0
  2630  1951-71-365    -2   50   62   0.070   0.140        0
  2631  2494-1-365      2   43   65   0.300  -0.360        0
  2632  2489-22-66     -2   43   63   0.450  -0.410        0
  2633  2489-27-87     -2   43   63   0.450  -0.410        0
  2634  2489-32-1      -2   43   63   0.450  -0.410        0
  2635  2489-33-60     -2   43   63   0.450  -0.410        0
  2636  2489-42-363     2   43   63   0.450  -0.410        0
  2637  2489-55-349     2   43   63   0.450  -0.410        0
  2638  2429-61-61      1   45   64  -0.370  -0.470        0
  2639  2429-66-25      1   45   64  -0.370  -0.470        0
  2640  2429-71-53      1   45   64  -0.370  -0.470        0
  2641  2457-22-65     -2   44   63   0.250  -0.440        0
  2642  2457-26-341    -2   44   63   0.250  -0.440        0
  2643  2457-31-335    -2   44   63   0.250  -0.440        0
  2644  2457-33-60     -2   44   63   0.250  -0.440        0
  2645  2457-42-363    -2   44   63   0.250  -0.440        0
  2646  2457-48-337    -2   44   63   0.250  -0.440        0
  2647  2457-56-18     -2   44   63   0.250  -0.440        0
  2648  2457-61-47     -2   44   63   0.250  -0.440        0
  2649  2457-66-32     -2   44   63   0.250  -0.440        0
  2650  2457-71-14     -2   44   63   0.250  -0.440        0
  2651  2457-71-42     -2   44   63   0.250  -0.440        0
  2652  2457-71-365    -2   44   63   0.250  -0.440        0
  2653  2457-71-365    -2   44   63   0.250  -0.440        0
  2654  2426-61-61      1   45   63  -0.330  -0.350        0
  2655  2426-66-25      1   45   63  -0.330  -0.350        0
  2656  2378-22-66      2   46   63  -0.410   0.140        0
  2657  2378-26-341     2   46   63  -0.410   0.140        0
  2658  2378-31-335     2   46   63  -0.410   0.140        0
  2659  2377-7-1        1   46   63  -0.410   0.400        0
  2660  2377-12-92      1   46   63  -0.410   0.400        0
  2661  2382-1-365      1   46   63  -0.450  -0.350        0
  2662  2369-16-364     1   46   63  -0.220  -0.350        0
  2663  2397-10-255     2   45   64   0.320   0.410        0
  2664  2381-66-32      2   46   64  -0.450  -0.210        0
  2665  2368-56-25      2   46   65  -0.140  -0.460        0
  2666  2368-61-48      2   46   65  -0.140  -0.460        0
  2667  2364-56-25     -2   46   64  -0.180   0.410        0
  2668  2364-61-48     -2   46   64  -0.180   0.410        0
  2669  2364-66-24     -2   46   64  -0.180   0.410        0
  2670  2364-71-14     -2   46   64  -0.180   0.410        0
  2671  2364-71-365    -2   46   64  -0.180   0.410        0
  2672  2361-56-25      2   46   64  -0.140   0.150        0
  2673  2361-61-48      2   46   64  -0.140   0.150        0
  2674  2361-66-24      2   46   64  -0.140   0.150        0
  2675  2361-71-14      2   46   64  -0.140   0.150        0
  2676  2361-71-365     2   46   64  -0.140   0.150        0
  2677  2349-42-364    -2   46   64   0.050   0.440        0
  2678  2349-48-341    -2   46   64   0.050   0.440        0
  2679  2349-56-18     -2   46   64   0.050   0.440        0
  2680  2349-61-48     -2   46   64   0.050   0.440        0
  2681  2349-66-24     -2   46   64   0.050   0.440        0
  2682  2349-71-14     -2   46   64   0.050   0.440        0
  2683  2349-71-365    -2   46   64   0.050   0.440        0
  2684  2422-32-60      1   45   65  -0.060   0.450        0
  2685  2422-33-60      1   45   65  -0.060   0.450        0
  2686  2422-42-363     2   45   65  -0.060   0.450        0
  2687  2422-48-357     2   45   65  -0.060   0.450        0
  2688  2422-55-349     2   45   65  -0.060   0.450        0
  2689  2422-61-3       2   45   65  -0.060   0.450        0
  2690  2406-22-65      2   45   65   0.210  -0.170        0
  2691  2396-16-298     1   45   65   0.320  -0.100        0
  2692  2396-22-32      1   45   65   0.320  -0.100        0
  2693  2396-27-10      1   45   65   0.320  -0.100        0
  2694  2401-22-65      1   45   65   0.280  -0.330        0
  2695  2376-26-341    -2   46   65  -0.410  -0.100        0
  2696  2365-22-65     -2   46   65  -0.180  -0.330        0
  2697  2365-27-4      -2   46   65  -0.180  -0.330        0
  2698  2335-56-18     -2   46   65   0.090  -0.320        0
  2699  2335-60-322    -2   46   65   0.090  -0.320        0
  2700  2335-65-326    -2   46   65   0.090  -0.320        0
  2701  2335-71-365    -2   46   65   0.090  -0.320        0
  2702  2348-56-18     -3   46   65   0.160  -0.070        0
  2703  2348-61-48     -3   46   65   0.160  -0.070        0
  2704  2348-66-24     -3   46   65   0.160  -0.070        0
  2705  2348-71-365    -3   46   65   0.160  -0.070        0
  2706  2347-42-364     2   46   65   0.090   0.420        0
  2707  2347-48-337     2   46   65   0.090   0.420        0
  2708  2347-56-18      2   46   65   0.090   0.420        0
  2709  2347-61-48      2   46   65   0.090   0.420        0
  2710  2347-66-24      2   46   65   0.090   0.420        0
  2711  2380-61-48      1   46   66  -0.490  -0.420        0
  2712  2392-61-48      2   45   66   0.360  -0.420        0
  2713  2391-61-48      1   46   66  -0.490  -0.390        0
  2714  2391-66-25      1   46   66  -0.490  -0.390        0
  2715  2374-66-40      2   46   66   0.130  -0.030        0
  2716  2374-71-365     2   46   66   0.130  -0.030        0
  2717  2354-16-361     1   46   67   0.010   0.170        0
  2718  2353-48-274     1   46   67   0.010   0.270        0
  2719  2352-22-65      2   46   68   0.010  -0.080        0
  2720  2351-66-45      1   46   69   0.010   0.160        0
  2721  2351-71-42      1   46   69   0.010   0.160        0
  2722  2351-71-365     1   46   69   0.010   0.160        0
  2723  2341-55-348     1   46   70   0.080  -0.230        0
  2724  2341-66-45      1   46   70   0.080  -0.230        0
  2725  2341-71-42      1   46   70   0.080  -0.230        0
  2726  2341-71-365     1   46   70   0.080  -0.230        0
  2727  2350-42-355     2   46   69   0.010   0.450        0
  2728  2350-48-355     2   46   69   0.010   0.450        0
  2729  2350-55-348     2   46   69   0.010   0.450        0
  2730  2350-61-3       2   46   69   0.010   0.450        0
  2731  2350-71-42      2   46   69   0.010   0.450        0
  2732  2350-71-365     2   46   69   0.010   0.450        0
  2733  2358-48-306     2   46   70  -0.070   0.390        0
  2734  2215-1-357      2   47   74   0.420  -0.420        0
  2735  2215-6-295      2   47   74   0.420  -0.420        0
  2736  2215-10-349     2   47   74   0.420  -0.420        0
  2737  2215-22-68      2   47   74   0.420  -0.420        0
  2738  2215-31-335     2   47   74   0.420  -0.420        0
  2739  2215-33-1       2   47   74   0.420  -0.420        0
  2740  2215-39-60      2   47   74   0.420  -0.420        0
  2741  2215-42-356     2   47   74   0.420  -0.420        0
  2742  2215-48-336     2   47   74   0.420  -0.420        0
  2743  2164-48-337     1   48   73  -0.160  -0.270        0
  2744  2164-56-24      1   48   73  -0.160  -0.270        0
  2745  2164-61-54      1   48   73  -0.160  -0.270        0
  2746  2164-66-24      1   48   73  -0.160  -0.270        0
  2747  2164-71-41      1   48   73  -0.160  -0.270        0
  2748  2135-48-337    -2   48   74   0.070  -0.030        0
  2749  2135-56-24     -2   48   74   0.070  -0.030        0
  2750  2135-61-55     -2   48   74   0.070  -0.030        0
  2751  2135-66-26     -2   48   74   0.070  -0.030        0
  2752  2135-71-42     -2   48   74   0.070  -0.030        0
  2753  2238-56-23      1   47   72   0.080  -0.310        0
  2754  2334-22-67      2   46   71   0.240  -0.150        0
  2755  2334-26-349     2   46   71   0.240  -0.150        0
  2756  2334-33-60      2   46   71   0.240  -0.150        0
  2757  2334-42-363     2   46   71   0.240  -0.150        0
  2758  2334-48-274     2   46   71   0.240  -0.150        0
  2759  2334-55-321     2   46   71   0.240  -0.150        0
  2760  2334-60-319     2   46   71   0.240  -0.150        0
  2761  2334-65-326     2   46   71   0.240  -0.150        0
  2762  2334-71-14      2   46   71   0.240  -0.150        0
  2763  2334-71-42      2   46   71   0.240  -0.150        0
  2764  2334-71-365     2   46   71   0.240  -0.150        0
  2765  2334-71-365     2   46   71   0.240  -0.150        0
  2766  2225-55-321     1   47   71   0.350  -0.410        0
  2767  2223-55-279     1   47   71   0.380  -0.410        0
  2768  2223-61-47      1   47   71   0.380  -0.410        0
  2769  2223-66-32      1   47   71   0.380  -0.410        0
  2770  2223-71-14      1   47   71   0.380  -0.410        0
  2771  2223-71-365     1   47   71   0.380  -0.410        0
  2772  2224-55-321     1   47   71   0.350  -0.380        0
  2773  2224-61-47      1   47   71   0.350  -0.380        0
  2774  2224-66-32      1   47   71   0.350  -0.380        0
  2775  2142-48-274     2   48   71   0.000  -0.180        0
  2776  2150-48-306     2   48   71  -0.040  -0.180        0
  2777  2150-55-321     2   48   71  -0.040  -0.180        0
  2778  2141-48-274     2   48   71   0.110   0.010        0
  2779  2141-55-321     2   48   71   0.110   0.010        0
  2780  2141-61-47      2   48   71   0.110   0.010        0
  2781  2141-71-14      2   48   71   0.110   0.010        0
  2782  2141-71-365     2   48   71   0.110   0.010        0
  2783  2140-48-274     2   48   71   0.000   0.400        0
  2784  2140-55-321     2   48   71   0.000   0.400        0
  2785  2140-66-18     -2   48   71   0.000   0.400        0
  2786  2209-27-11      2   47   72   0.310   0.210        0
  2787  2209-31-351     2   47   72   0.310   0.210        0
  2788  2209-37-343     2   47   72   0.310   0.210        0
  2789  2208-56-23      1   47   72   0.460   0.210        0
  2790  2208-60-321     1   47   72   0.460   0.210        0
  2791  2208-65-299     1   47   72   0.460   0.210        0
  2792  2208-71-32      1   47   72   0.460   0.210        0
  2793  2208-71-365     1   47   72   0.460   0.210        0
  2794  2206-48-274    -2   47   72   0.460   0.310        0
  2795  2206-55-321    -2   47   72   0.460   0.310        0
  2796  2206-61-47     -2   47   72   0.460   0.310        0
  2797  2206-71-14     -2   47   72   0.460   0.310        0
  2798  2206-71-365    -2   47   72   0.460   0.310        0
  2799  2182-55-321     1   48   72  -0.270  -0.340        0
  2800  2174-55-279     1   48   72  -0.230  -0.310        0
  2801  2174-60-319     1   48   72  -0.230  -0.310        0
  2802  2174-65-326     1   48   72  -0.230  -0.310        0
  2803  2174-71-14      1   48   72  -0.230  -0.310        0
  2804  2174-71-365     1   48   72  -0.230  -0.310        0
  2805  2181-55-321     1   48   72  -0.270  -0.270        0
  2806  2181-61-47      1   48   72  -0.270  -0.270        0
  2807  2139-1-357      1   48   72   0.000  -0.080        0
  2808  2138-48-274     1   48   72   0.000   0.310        0
  2809  2138-55-321     1   48   72   0.000   0.310        0
  2810  2138-61-47      1   48   72   0.000   0.310        0
  2811  2138-66-24      1   48   72   0.000   0.310        0
  2812  2138-71-14      1   48   72   0.000   0.310        0
  2813  2138-71-365     1   48   72   0.000   0.310        0
  2814  2253-16-361     1   47   70  -0.230  -0.320        0
  2815  2251-48-274    -2   47   71  -0.230  -0.480        0
  2816  2251-55-321    -2   47   71  -0.230  -0.480        0
  2817  2314-12-116    -2   46   69   0.280   0.420        0
  2818  2314-22-67      2   46   69   0.280   0.420        0
  2819  2314-33-60      2   46   69   0.280   0.420        0
  2820  2290-7-322      1   46   69   0.470   0.160        0
  2821  2290-10-32      1   46   69   0.470   0.160        0
  2822  2290-42-364     1   46   69   0.470   0.160        0
  2823  2290-48-355     1   46   69   0.470   0.160        0
  2824  2290-55-348     1   46   69   0.470   0.160        0
  2825  2290-65-354     1   46   69   0.470   0.160        0
  2826  2290-71-42      1   46   69   0.470   0.160        0
  2827  2290-71-365     1   46   69   0.470   0.160        0
  2828  2286-42-357    -2   47   69  -0.490   0.450        0
  2829  2286-48-355    -2   47   69  -0.490   0.450        0
  2830  2286-61-3      -2   47   69  -0.490   0.450        0
  2831  2286-66-45     -2   47   69  -0.490   0.450        0
  2832  2287-42-357     1   47   69  -0.490   0.250        0
  2833  2287-61-3       1   47   69  -0.490   0.250        0
  2834  2287-71-42      1   47   69  -0.490   0.250        0
  2835  2287-71-365     1   47   69  -0.490   0.250        0
  2836  2278-22-67     -2   47   69  -0.460   0.190        0
  2837  2278-26-362    -2   47   69  -0.460   0.190        0
  2838  2278-31-335    -2   47   69  -0.460   0.190        0
  2839  2278-33-60     -2   47   69  -0.460   0.190        0
  2840  2278-48-274    -2   47   69  -0.460   0.190        0
  2841  2129-66-40      2   48   69   0.110   0.000        0
  2842  2129-71-42      2   48   69   0.110   0.000        0
  2843  2129-71-365     2   48   69   0.110   0.000        0
  2844  2146-7-1        1   48   69   0.000   0.190        0
  2845  2146-11-86      1   48   69   0.000   0.190        0
  2846  2146-22-67      1   48   69   0.000   0.190        0
  2847  2146-37-263     1   48   69   0.000   0.190        0
  2848  2147-42-363     1   48   69   0.000   0.160        0
  2849  2147-48-362     1   48   69   0.000   0.160        0
  2850  2147-55-349     1   48   69   0.000   0.160        0
  2851  2145-2-132      1   48   69   0.000   0.450        0
  2852  2144-2-132      1   48   70   0.000   0.200        0
  2853  2126-48-274     2   48   70  -0.310   0.330        0
  2854  2126-55-321     2   48   70  -0.310   0.330        0
  2855  2126-61-47      2   48   70  -0.310   0.330        0
  2856  2126-71-14      2   48   70  -0.310   0.330        0
  2857  2126-71-365     2   48   70  -0.310   0.330        0
  2858  2315-10-262     1   46   68   0.280   0.150        0
  2859  2288-10-262     2   47   68  -0.490   0.440        0
  2860  2248-56-23     -2   47   68  -0.030  -0.050        0
  2861  2239-16-361     1   47   68   0.080   0.020        0
  2862  2239-22-32      1   47   68   0.080   0.020        0
  2863  2239-27-10      1   47   68   0.080   0.020        0
  2864  2239-56-23      1   47   68   0.080   0.020        0
  2865  2267-56-25      1   47   67  -0.340  -0.120        0
  2866  2255-22-65      1   47   67  -0.220   0.430        0
  2867  2255-32-60      1   47   67  -0.220   0.430        0
  2868  2255-38-60      1   47   67  -0.220   0.430        0
  2869  2240-56-25      1   47   68  -0.030  -0.050        0
  2870  2240-66-32      1   47   68  -0.030  -0.050        0
  2871  2240-71-54      1   47   68  -0.030  -0.050        0
  2872  2114-61-49      2   48   68  -0.380   0.250        0
  2873  2114-66-40      2   48   68  -0.380   0.250        0
  2874  2114-71-42      2   48   68  -0.380   0.250        0
  2875  2114-71-365     2   48   68  -0.380   0.250        0
  2876  2191-56-23      1   48   68  -0.380   0.180        0
  2877  2191-61-61      1   48   68  -0.380   0.180        0
  2878  2191-66-25      1   48   68  -0.380   0.180        0
  2879  2210-48-334     1   47   69   0.460  -0.460        0
  2880  2210-55-321     1   47   69   0.460  -0.460        0
  2881  2210-61-47      1   47   69   0.460  -0.460        0
  2882  2210-66-24      1   47   69   0.460  -0.460        0
  2883  2210-71-42      1   47   69   0.460  -0.460        0
  2884  2210-71-365     1   47   69   0.460  -0.460        0
  2885  2162-48-274     2   48   68  -0.150   0.180        0
  2886  2162-65-354     2   48   68  -0.150   0.180        0
  2887  2162-71-42      2   48   68  -0.150   0.180        0
  2888  2162-71-365     2   48   68  -0.150   0.180        0
  2889  2298-61-48     -3   46   66   0.390  -0.390        0
  2890  2298-66-24     -3   46   66   0.390  -0.390        0
  2891  2298-71-14     -3   46   66   0.390  -0.390        0
  2892  2298-71-365    -3   46   66   0.390  -0.390        0
  2893  2250-22-69      2   47   65  -0.150   0.160        0
  2894  2250-27-61      2   47   65  -0.150   0.160        0
  2895  2227-42-363    -3   47   65   0.310  -0.300        0
  2896  2227-48-365    -3   47   65   0.310  -0.300        0
  2897  2227-55-349    -3   47   65   0.310  -0.300        0
  2898  2227-61-54     -3   47   65   0.310  -0.300        0
  2899  2227-66-45     -3   47   65   0.310  -0.300        0
  2900  2227-71-49     -3   47   65   0.310  -0.300        0
  2901  2227-71-365    -3   47   65   0.310  -0.300        0
  2902  2152-22-68      1   48   66  -0.040   0.170        0
  2903  2263-10-144     1   47   63  -0.300  -0.090        0
  2904  2276-22-61     -2   47   63  -0.340  -0.020        0
  2905  2276-26-301    -2   47   63  -0.340  -0.020        0
  2906  2276-48-362    -2   47   63  -0.340  -0.020        0
  2907  2276-55-349    -2   47   63  -0.340  -0.020        0
  2908  2276-61-33     -2   47   63  -0.340  -0.020        0
  2909  2276-66-32     -2   47   63  -0.340  -0.020        0
  2910  2276-71-14     -2   47   63  -0.340  -0.020        0
  2911  2276-71-41     -2   47   63  -0.340  -0.020        0
  2912  2276-71-365    -2   47   63  -0.340  -0.020        0
  2913  2276-71-365    -2   47   63  -0.340  -0.020        0
  2914  2229-61-33      2   47   63   0.350   0.440        0
  2915  2229-66-32      2   47   63   0.350   0.440        0
  2916  2229-71-14      2   47   63   0.350   0.440        0
  2917  2229-71-41      2   47   63   0.350   0.440        0
  2918  2229-71-365     2   47   63   0.350   0.440        0
  2919  2229-71-365     2   47   63   0.350   0.440        0
  2920  2235-42-335     1   47   63   0.240   0.240        0
  2921  2130-8-49       1   48   63   0.080  -0.340        0
  2922  2130-12-58      1   48   63   0.080  -0.340        0
  2923  2130-17-87      1   48   63   0.080  -0.340        0
  2924  2130-22-79      1   48   63   0.080  -0.340        0
  2925  2130-32-60      1   48   63   0.080  -0.340        0
  2926  2130-42-363     1   48   63   0.080  -0.340        0
  2927  2130-48-362     1   48   63   0.080  -0.340        0
  2928  2153-48-362    -2   48   63  -0.040  -0.380        0
  2929  2153-55-349    -2   48   63  -0.040  -0.380        0
  2930  2153-61-33     -2   48   63  -0.040  -0.380        0
  2931  2153-71-41     -2   48   63  -0.040  -0.380        0
  2932  2153-71-365    -2   48   63  -0.040  -0.380        0
  2933  2217-66-32      1   47   64   0.390   0.280        0
  2934  2231-22-65      1   47   64   0.280  -0.340        0
  2935  2231-42-363     1   47   64   0.280  -0.340        0
  2936  2231-48-362     1   47   64   0.280  -0.340        0
  2937  2231-55-349     1   47   64   0.280  -0.340        0
  2938  2231-61-54      1   47   64   0.280  -0.340        0
  2939  2231-66-49      1   47   64   0.280  -0.340        0
  2940  2231-71-41      1   47   64   0.280  -0.340        0
  2941  2231-71-365     1   47   64   0.280  -0.340        0
  2942  2228-42-363    -2   47   64   0.310  -0.300        0
  2943  2228-48-362    -2   47   64   0.310  -0.300        0
  2944  2228-55-349    -2   47   64   0.310  -0.300        0
  2945  2228-61-54     -2   47   64   0.310  -0.300        0
  2946  2228-66-49     -2   47   64   0.310  -0.300        0
  2947  2228-71-41     -2   47   64   0.310  -0.300        0
  2948  2228-71-365    -2   47   64   0.310  -0.300        0
  2949  2056-12-58      1   49   64  -0.190  -0.080        0
  2950  2056-22-66      1   49   64  -0.190  -0.080        0
  2951  2056-27-61      1   49   64  -0.190  -0.080        0
  2952  2032-7-32       1   49   63   0.040   0.270        0
  2953  2032-12-58      1   49   63   0.040   0.270        0
  2954  2032-32-83      1   49   63   0.040   0.270        0
  2955  2033-42-363    -2   49   63   0.040   0.270        0
  2956  2033-48-362    -2   49   63   0.040   0.270        0
  2957  2033-56-34     -2   49   63   0.040   0.270        0
  2958  2033-61-56     -2   49   63   0.040   0.270        0
  2959  2033-66-54     -2   49   63   0.040   0.270        0
  2960  2033-71-49     -2   49   63   0.040   0.270        0
  2961  2033-71-365    -2   49   63   0.040   0.270        0
  2962  2000-37-34      1   50   63  -0.470   0.180        0
  2963  2000-55-349     1   50   63  -0.470   0.180        0
  2964  2004-48-357     2   49   63   0.490   0.270        0
  2965  2004-71-49      2   49   63   0.490   0.270        0
  2966  2004-71-365     2   49   63   0.490   0.270        0
  2967  2019-17-82     -2   49   64   0.300   0.020        0
  2968  2019-22-69     -2   49   64   0.300   0.020        0
  2969  2019-42-335    -2   49   64   0.300   0.020        0
  2970  2019-48-365    -2   49   64   0.300   0.020        0
  2971  2019-66-40     -2   49   64   0.300   0.020        0
  2972  2019-71-49     -2   49   64   0.300   0.020        0
  2973  2019-71-365    -2   49   64   0.300   0.020        0
  2974  2015-66-40      2   49   64   0.300  -0.080        0
  2975  2015-71-49      2   49   64   0.300  -0.080        0
  2976  2015-71-365     2   49   64   0.300  -0.080        0
  2977  2023-42-363    -3   49   64   0.300  -0.010        0
  2978  2023-48-365    -3   49   64   0.300  -0.010        0
  2979  2023-55-349    -3   49   64   0.300  -0.010        0
  2980  2023-61-54     -3   49   64   0.300  -0.010        0
  2981  2023-71-49     -3   49   64   0.300  -0.010        0
  2982  2023-71-365    -3   49   64   0.300  -0.010        0
  2983  2060-48-365    -2   49   66  -0.230   0.460        0
  2984  2060-55-356    -2   49   66  -0.230   0.460        0
  2985  2060-61-54     -2   49   66  -0.230   0.460        0
  2986  2060-66-19     -2   49   66  -0.230   0.460        0
  2987  2060-71-42     -2   49   66  -0.230   0.460        0
  2988  2060-71-365    -2   49   66  -0.230   0.460        0
  2989  2115-22-66      2   48   65   0.270   0.190        0
  2990  2105-42-363    -2   48   65   0.350   0.130        0
  2991  2105-48-362    -2   48   65   0.350   0.130        0
  2992  2105-56-33     -2   48   65   0.350   0.130        0
  2993  2105-61-33     -2   48   65   0.350   0.130        0
  2994  2105-66-32     -2   48   65   0.350   0.130        0
  2995  2105-71-42     -2   48   65   0.350   0.130        0
  2996  2105-71-365    -2   48   65   0.350   0.130        0
  2997  2098-65-354     2   48   65   0.380   0.130        0
  2998  2098-71-42      2   48   65   0.380   0.130        0
  2999  2098-71-365     2   48   65   0.380   0.130        0
  3000  2103-42-363    -2   48   65   0.350   0.000        0
  3001  2103-48-362    -2   48   65   0.350   0.000        0
  3002  2103-61-33     -2   48   65   0.350   0.000        0
  3003  2103-66-32     -2   48   65   0.350   0.000        0
  3004  2103-71-42     -2   48   65   0.350   0.000        0
  3005  2103-71-365    -2   48   65   0.350   0.000        0
  3006  2055-22-66      1   49   65  -0.200   0.420        0
  3007  2055-32-83      1   49   65  -0.200   0.420        0
  3008  2014-12-66      1   49   66   0.340   0.000        0
  3009  2014-22-69      1   49   66   0.340   0.000        0
  3010  2014-27-3       1   49   66   0.340   0.000        0
  3011  2014-42-363     1   49   66   0.340   0.000        0
  3012  2014-48-357     1   49   66   0.340   0.000        0
  3013  2014-66-19      1   49   66   0.340   0.000        0
  3014  2014-71-42      1   49   66   0.340   0.000        0
  3015  2014-71-365     1   49   66   0.340   0.000        0
  3016  2013-42-363    -2   49   66   0.340  -0.030        0
  3017  2013-48-357    -2   49   66   0.340  -0.030        0
  3018  2013-55-350    -2   49   66   0.340  -0.030        0
  3019  2013-61-33     -2   49   66   0.340  -0.030        0
  3020  2013-66-19     -2   49   66   0.340  -0.030        0
  3021  2013-71-42     -2   49   66   0.340  -0.030        0
  3022  2013-71-365    -2   49   66   0.340  -0.030        0
  3023  1974-22-79      1   50   66  -0.160  -0.030        0
  3024  1974-26-307     1   50   66  -0.160  -0.030        0
  3025  1974-42-363     1   50   66  -0.160  -0.030        0
  3026  1974-48-357     1   50   66  -0.160  -0.030        0
  3027  1966-42-363    -2   50   66  -0.090  -0.160        0
  3028  1966-48-350    -2   50   66  -0.090  -0.160        0
  3029  1966-55-350    -2   50   66  -0.090  -0.160        0
  3030  1966-61-33     -2   50   66  -0.090  -0.160        0
  3031  1966-66-19     -2   50   66  -0.090  -0.160        0
  3032  1966-71-49     -2   50   66  -0.090  -0.160        0
  3033  1966-71-365    -2   50   66  -0.090  -0.160        0
  3034  1972-71-49      2   50   66  -0.160   0.010        0
  3035  1972-71-365     2   50   66  -0.160   0.010        0
  3036  2036-11-305     1   49   68   0.030   0.410        0
  3037  2035-48-365    -3   49   68   0.030   0.440        0
  3038  2035-56-18     -3   49   68   0.030   0.440        0
  3039  2035-61-54     -3   49   68   0.030   0.440        0
  3040  2035-66-45     -3   49   68   0.030   0.440        0
  3041  2035-71-42     -3   49   68   0.030   0.440        0
  3042  2035-71-365    -3   49   68   0.030   0.440        0
  3043  1999-22-69      2   50   67  -0.470  -0.080        0
  3044  1999-26-349     2   50   67  -0.470  -0.080        0
  3045  1999-32-73      2   50   67  -0.470  -0.080        0
  3046  1999-42-363     2   50   67  -0.470  -0.080        0
  3047  1999-48-357     2   50   67  -0.470  -0.080        0
  3048  1999-55-353     2   50   67  -0.470  -0.080        0
  3049  1999-60-309     2   50   67  -0.470  -0.080        0
  3050  1999-66-28      2   50   67  -0.470  -0.080        0
  3051  1999-71-42      2   50   67  -0.470  -0.080        0
  3052  1999-71-365     2   50   67  -0.470  -0.080        0
  3053  1957-12-66      1   50   67   0.030   0.180        0
  3054  1957-22-79      1   50   67   0.030   0.180        0
  3055  1957-27-3       1   50   67   0.030   0.180        0
  3056  1957-32-60      1   50   67   0.030   0.180        0
  3057  1957-42-363     1   50   67   0.030   0.180        0
  3058  1957-48-357     1   50   67   0.030   0.180        0
  3059  1957-55-353     1   50   67   0.030   0.180        0
  3060  1957-60-306     1   50   67   0.030   0.180        0
  3061  1957-66-19      1   50   67   0.030   0.180        0
  3062  1957-71-42      1   50   67   0.030   0.180        0
  3063  1957-71-365     1   50   67   0.030   0.180        0
  3064  2125-48-306     1   48   70   0.110   0.460        0
  3065  2125-55-321     1   48   70   0.110   0.460        0
  3066  2086-48-274     2   48   70   0.460   0.360        0
  3067  2086-56-48      2   48   70   0.460   0.360        0
  3068  2086-61-47      2   48   70   0.460   0.360        0
  3069  2086-66-26      2   48   70   0.460   0.360        0
  3070  2086-71-14      2   48   70   0.460   0.360        0
  3071  2086-71-365     2   48   70   0.460   0.360        0
  3072  2102-26-349    -2   48   70   0.340  -0.260        0
  3073  2102-48-274    -2   48   70   0.340  -0.260        0
  3074  2102-55-321    -2   48   70   0.340  -0.260        0
  3075  2102-60-319    -2   48   70   0.340  -0.260        0
  3076  2102-66-1      -2   48   70   0.340  -0.260        0
  3077  2102-71-42     -2   48   70   0.340  -0.260        0
  3078  2102-71-365    -2   48   70   0.340  -0.260        0
  3079  2054-39-31     -2   49   70  -0.200  -0.350        0
  3080  2054-48-357    -2   49   70  -0.200  -0.350        0
  3081  2054-55-349    -2   49   70  -0.200  -0.350        0
  3082  2054-61-3      -2   49   70  -0.200  -0.350        0
  3083  2054-66-40     -2   49   70  -0.200  -0.350        0
  3084  2054-71-42     -2   49   70  -0.200  -0.350        0
  3085  2054-71-365    -2   49   70  -0.200  -0.350        0
  3086  2063-22-69      1   49   70  -0.160   0.430        0
  3087  1996-11-86      1   50   69  -0.470   0.450        0
  3088  1997-22-60      1   50   69  -0.470   0.420        0
  3089  1997-32-60      1   50   69  -0.470   0.420        0
  3090  1997-55-349     1   50   69  -0.470   0.420        0
  3091  1997-65-354     1   50   69  -0.470   0.420        0
  3092  1997-71-42      1   50   69  -0.470   0.420        0
  3093  1997-71-365     1   50   69  -0.470   0.420        0
  3094  1949-48-334     1   50   70  -0.010  -0.420        0
  3095  1949-56-17      1   50   70  -0.010  -0.420        0
  3096  1942-56-17     -2   50   70   0.100  -0.450        0
  3097  1942-61-53     -2   50   70   0.100  -0.450        0
  3098  1942-66-19     -2   50   70   0.100  -0.450        0
  3099  1942-71-42     -2   50   70   0.100  -0.450        0
  3100  1942-71-365    -2   50   70   0.100  -0.450        0
  3101  1943-33-314     2   50   68   0.100  -0.110        0
  3102  2078-65-355     2   49   72  -0.390   0.470        0
  3103  2078-71-42      2   49   72  -0.390   0.470        0
  3104  2078-71-365     2   49   72  -0.390   0.470        0
  3105  2072-16-364     1   49   72  -0.390  -0.180        0
  3106  2072-27-10      1   49   72  -0.390  -0.180        0
  3107  2030-42-362    -2   49   72   0.070   0.380        0
  3108  2030-48-357    -2   49   72   0.070   0.380        0
  3109  2030-55-348    -2   49   72   0.070   0.380        0
  3110  2030-61-3      -2   49   72   0.070   0.380        0
  3111  2030-65-355    -2   49   72   0.070   0.380        0
  3112  2030-71-42     -2   49   72   0.070   0.380        0
  3113  2030-71-365    -2   49   72   0.070   0.380        0
  3114  2082-22-32     -2   48   71   0.490   0.170        0
  3115  2081-8-101      2   48   71   0.460   0.340        0
  3116  2081-12-109     2   48   71   0.460   0.340        0
  3117  2081-22-68      2   48   71   0.460   0.340        0
  3118  2081-42-364     2   48   71   0.460   0.340        0
  3119  2081-56-18      2   48   71   0.460   0.340        0
  3120  2081-71-13      2   48   71   0.460   0.340        0
  3121  2081-71-365     2   48   71   0.460   0.340        0
  3122  2101-8-51       1   48   71   0.340  -0.120        0
  3123  2101-11-86      1   48   71   0.340  -0.120        0
  3124  2101-22-32      1   48   71   0.340  -0.120        0
  3125  2101-27-10      1   48   71   0.340  -0.120        0
  3126  1986-27-81     -2   50   71  -0.320   0.010        0
  3127  1986-42-362    -2   50   71  -0.320   0.010        0
  3128  1986-48-334    -2   50   71  -0.320   0.010        0
  3129  1986-55-321    -2   50   71  -0.320   0.010        0
  3130  1986-61-47     -2   50   71  -0.320   0.010        0
  3131  1986-66-32     -2   50   71  -0.320   0.010        0
  3132  1986-71-14     -2   50   71  -0.320   0.010        0
  3133  1986-71-42     -2   50   71  -0.320   0.010        0
  3134  1986-71-365    -2   50   71  -0.320   0.010        0
  3135  1986-71-365    -2   50   71  -0.320   0.010        0
  3136  1956-32-83      1   50   72   0.020  -0.300        0
  3137  1956-37-34      1   50   72   0.020  -0.300        0
  3138  1948-48-274    -2   50   72   0.060   0.480        0
  3139  2117-8-182      2   48   75   0.220  -0.480        0
  3140  2093-66-26     -2   49   75  -0.470  -0.480        0
  3141  2071-16-364     2   49   73  -0.390  -0.100        0
  3142  2053-56-33      1   49   73  -0.200  -0.460        0
  3143  2053-65-355     1   49   73  -0.200  -0.460        0
  3144  2053-71-43      1   49   73  -0.200  -0.460        0
  3145  2053-71-365     1   49   73  -0.200  -0.460        0
  3146  2046-61-3       1   49   73  -0.090  -0.200        0
  3147  2046-65-355     1   49   73  -0.090  -0.200        0
  3148  2046-71-49      1   49   73  -0.090  -0.200        0
  3149  2046-71-365     1   49   73  -0.090  -0.200        0
  3150  2029-66-45      1   49   73   0.100  -0.390        0
  3151  2029-71-43      1   49   73   0.100  -0.390        0
  3152  2029-71-365     1   49   73   0.100  -0.390        0
  3153  2026-71-43      1   49   73   0.100  -0.170        0
  3154  2026-71-365     1   49   73   0.100  -0.170        0
  3155  2028-71-43     -2   49   73   0.100  -0.130        0
  3156  2028-71-365    -2   49   73   0.100  -0.130        0
  3157  2048-56-33      2   49   73  -0.160   0.450        0
  3158  2048-65-355     2   49   73  -0.160   0.450        0
  3159  2048-71-49      2   49   73  -0.160   0.450        0
  3160  2048-71-365     2   49   73  -0.160   0.450        0
  3161  2049-55-347     2   49   73  -0.160   0.290        0
  3162  2049-65-355     2   49   73  -0.160   0.290        0
  3163  2049-71-43      2   49   73  -0.160   0.290        0
  3164  2049-71-365     2   49   73  -0.160   0.290        0
  3165  1995-22-69      1   50   73  -0.480   0.000        0
  3166  1995-26-280     1   50   73  -0.480   0.000        0
  3167  1995-42-355     1   50   73  -0.480   0.000        0
  3168  1995-48-357     1   50   73  -0.480   0.000        0
  3169  1995-56-17      1   50   73  -0.480   0.000        0
  3170  1995-61-3       1   50   73  -0.480   0.000        0
  3171  1995-65-355     1   50   73  -0.480   0.000        0
  3172  1995-71-43      1   50   73  -0.480   0.000        0
  3173  1995-71-365     1   50   73  -0.480   0.000        0
  3174  1947-22-79      1   50   73   0.060   0.000        0
  3175  1947-26-349     1   50   73   0.060   0.000        0
  3176  1947-32-73      1   50   73   0.060   0.000        0
  3177  1947-39-31      1   50   73   0.060   0.000        0
  3178  1947-48-355     1   50   73   0.060   0.000        0
  3179  1947-55-348     1   50   73   0.060   0.000        0
  3180  1947-61-3       1   50   73   0.060   0.000        0
  3181  1947-66-1       1   50   73   0.060   0.000        0
  3182  1947-71-43      1   50   73   0.060   0.000        0
  3183  1947-71-365     1   50   73   0.060   0.000        0
  3184  1985-56-25     -2   50   74  -0.320  -0.420        0
  3185  1985-66-33     -2   50   74  -0.320  -0.420        0
  3186  1985-71-42     -2   50   74  -0.320  -0.420        0
  3187  2017-42-363    -2   50   73  -0.360   0.130        0
  3188  2017-48-337    -2   50   73  -0.360   0.130        0
  3189  2017-56-24     -2   50   73  -0.360   0.130        0
  3190  2017-61-55     -2   50   73  -0.360   0.130        0
  3191  2017-66-24     -2   50   73  -0.360   0.130        0
  3192  2017-71-42     -2   50   73  -0.360   0.130        0
  3193  1941-16-364     1   50   75   0.100  -0.410        0
  3194  2339-1-365      2   46   75   0.080   0.460        0
  3195  2339-12-113     2   46   75   0.080   0.460        0
  3196  2339-22-74      2   46   75   0.080   0.460        0
  3197  2435-11-80      2   45   78  -0.460  -0.330        0
  3198  2435-22-72      2   45   78  -0.460  -0.330        0
  3199  2443-48-336     2   45   78  -0.420  -0.230        0
  3200  2443-56-20      2   45   78  -0.420  -0.230        0
  3201  2443-61-54      2   45   78  -0.420  -0.230        0
  3202  2443-66-24      2   45   78  -0.420  -0.230        0
  3203  2443-71-42      2   45   78  -0.420  -0.230        0
  3204  2379-22-74      2   46   82  -0.470  -0.490        0
  3205  2379-42-356     2   46   82  -0.470  -0.490        0
  3206  2379-48-336     2   46   82  -0.470  -0.490        0
  3207  2379-56-19      2   46   82  -0.470  -0.490        0
  3208  2379-61-55      2   46   82  -0.470  -0.490        0
  3209  2379-66-27      2   46   82  -0.470  -0.490        0
  3210  2379-71-42      2   46   82  -0.470  -0.490        0
  3211  2375-42-357     2   46   81  -0.430   0.410        0
  3212  2375-48-350     2   46   81  -0.430   0.410        0
  3213  2375-55-348     2   46   81  -0.430   0.410        0
  3214  2375-61-48      2   46   81  -0.430   0.410        0
  3215  2375-65-350     2   46   81  -0.430   0.410        0
  3216  2375-71-55      2   46   81  -0.430   0.410        0
  3217  2375-71-365     2   46   81  -0.430   0.410        0
  3218  2338-22-74      2   46   81   0.070   0.180        0
  3219  2338-48-355     2   46   81   0.070   0.180        0
  3220  2338-56-5       2   46   81   0.070   0.180        0
  3221  2338-61-48      2   46   81   0.070   0.180        0
  3222  2338-65-350     2   46   81   0.070   0.180        0
  3223  2338-71-55      2   46   81   0.070   0.180        0
  3224  2338-71-365     2   46   81   0.070   0.180        0
  3225  2205-22-74      3   47   85   0.440   0.250        0
  3226  2200-22-85      3   47   86   0.480  -0.490        0
  3227  2189-61-55      3   48   86  -0.370   0.420        0
  3228  2173-61-60      2   48   84  -0.250  -0.080        0
  3229  2323-22-74      2   46   81   0.220   0.090        0
  3230  2193-48-336     1   48   81  -0.400  -0.270        0
  3231  2193-56-19      1   48   81  -0.400  -0.270        0
  3232  2193-61-55      1   48   81  -0.400  -0.270        0
  3233  2193-66-27      1   48   81  -0.400  -0.270        0
  3234  2193-71-42      1   48   81  -0.400  -0.270        0
  3235  2100-12-113     2   48   82   0.090   0.160        0
  3236  2100-22-75      2   48   82   0.090   0.160        0
  3237  2100-42-357     2   48   82   0.090   0.160        0
  3238  2100-48-336     2   48   82   0.090   0.160        0
  3239  2100-55-347     2   48   82   0.090   0.160        0
  3240  2100-61-48      2   48   82   0.090   0.160        0
  3241  2100-65-356     2   48   82   0.090   0.160        0
  3242  2100-71-42      2   48   82   0.090   0.160        0
  3243  2100-71-54      2   48   82   0.090   0.160        0
  3244  2100-71-365     2   48   82   0.090   0.160        0
  3245  2324-27-11      2   46   80   0.220   0.370        0
  3246  2324-38-91      2   46   80   0.220   0.370        0
  3247  2324-42-356     2   46   80   0.220   0.370        0
  3248  2324-56-20      2   46   80   0.220   0.370        0
  3249  2324-66-28      2   46   80   0.220   0.370        0
  3250  2324-71-63      2   46   80   0.220   0.370        0
  3251  2285-22-74      2   46   80   0.490   0.010        0
  3252  2285-32-67      2   46   80   0.490   0.010        0
  3253  2285-38-60      2   46   80   0.490   0.010        0
  3254  2285-71-63      2   46   80   0.490   0.010        0
  3255  2119-42-357     1   48   80   0.180  -0.210        0
  3256  2119-48-355     1   48   80   0.180  -0.210        0
  3257  2119-55-348     1   48   80   0.180  -0.210        0
  3258  2119-61-49      1   48   80   0.180  -0.210        0
  3259  2119-71-55      1   48   80   0.180  -0.210        0
  3260  2119-71-365     1   48   80   0.180  -0.210        0
  3261  2184-33-274    -2   48   81  -0.320  -0.400        0
  3262  2179-33-26      2   48   77  -0.390  -0.040        0
  3263  2179-48-337     2   48   77  -0.390  -0.040        0
  3264  2179-56-20      2   48   77  -0.390  -0.040        0
  3265  2179-66-28      2   48   77  -0.390  -0.040        0
  3266  2297-42-355     2   46   77   0.420  -0.500        0
  3267  2297-48-336     2   46   77   0.420  -0.500        0
  3268  2297-56-20      2   46   77   0.420  -0.500        0
  3269  2297-61-54      2   46   77   0.420  -0.500        0
  3270  2297-66-21      2   46   77   0.420  -0.500        0
  3271  2297-71-41      2   46   77   0.420  -0.500        0
  3272  2185-42-357     2   48   76  -0.430   0.020        0
  3273  2185-48-355     2   48   76  -0.430   0.020        0
  3274  2185-55-347     2   48   76  -0.430   0.020        0
  3275  2185-66-45      2   48   76  -0.430   0.020        0
  3276  2185-71-344     2   48   76  -0.430   0.020        0
  3277  2134-16-361     2   48   76   0.030   0.310        0
  3278  2134-22-32      2   48   76   0.030   0.310        0
  3279  2134-27-11      2   48   76   0.030   0.310        0
  3280  2134-48-357     2   48   76   0.030   0.310        0
  3281  2134-55-347     2   48   76   0.030   0.310        0
  3282  2134-66-45      2   48   76   0.030   0.310        0
  3283  2134-71-344     2   48   76   0.030   0.310        0
  3284  2091-61-55      1   48   76   0.410  -0.270        0
  3285  2091-66-26      1   48   76   0.410  -0.270        0
  3286  2091-71-55      1   48   76   0.410  -0.270        0
  3287  2097-48-337     1   48   74   0.410  -0.160        0
  3288  2097-56-23      1   48   74   0.410  -0.160        0
  3289  2097-66-26      1   48   74   0.410  -0.160        0
  3290  2097-71-55      1   48   74   0.410  -0.160        0
  3291  2068-12-281     1   49   77  -0.360  -0.460        0
  3292  2070-48-357     1   49   77  -0.400  -0.460        0
  3293  2070-55-348     1   49   77  -0.400  -0.460        0
  3294  2070-60-348     1   49   77  -0.400  -0.460        0
  3295  2070-66-1       1   49   77  -0.400  -0.460        0
  3296  2070-71-365     1   49   77  -0.400  -0.460        0
  3297  2027-39-31      1   49   75   0.100   0.400        0
  3298  2025-66-26      1   49   75   0.220   0.340        0
  3299  2025-71-55      1   49   75   0.220   0.340        0
  3300  2010-32-67      1   49   75   0.370  -0.380        0
  3301  1954-32-67      1   50   76  -0.140   0.480        0
  3302  1954-48-355     1   50   76  -0.140   0.480        0
  3303  1954-55-347     1   50   76  -0.140   0.480        0
  3304  1954-66-45      1   50   76  -0.140   0.480        0
  3305  1954-71-344     1   50   76  -0.140   0.480        0
  3306  1963-32-85      1   50   76  -0.020   0.150        0
  3307  1963-42-357     1   50   76  -0.020   0.150        0
  3308  1963-48-355     1   50   76  -0.020   0.150        0
  3309  1963-55-348     1   50   76  -0.020   0.150        0
  3310  1963-61-49      1   50   76  -0.020   0.150        0
  3311  1963-65-356     1   50   76  -0.020   0.150        0
  3312  1963-71-365     1   50   76  -0.020   0.150        0
  3313  2090-27-11      1   48   78   0.410   0.030        0
  3314  2065-66-45      2   49   78  -0.360   0.000        0
  3315  2065-71-365     2   49   78  -0.360   0.000        0
  3316  2003-71-365     1   49   78   0.480   0.430        0
  3317  1984-42-355     1   50   78  -0.330   0.360        0
  3318  1984-48-336     1   50   78  -0.330   0.360        0
  3319  2116-65-350     2   48   80   0.210  -0.310        0
  3320  2047-56-19      1   49   80  -0.170  -0.270        0
  3321  2047-61-55      1   49   80  -0.170  -0.270        0
  3322  2047-66-21      1   49   80  -0.170  -0.270        0
  3323  2044-56-19      1   49   79   0.020   0.170        0
  3324  2044-61-55      1   49   79   0.020   0.170        0
  3325  2044-66-21      1   49   79   0.020   0.170        0
  3326  2044-71-41      1   49   79   0.020   0.170        0
  3327  2018-34-212    -2   49   80   0.210  -0.470        0
  3328  2012-1-52       1   49   79   0.330  -0.220        0
  3329  2012-42-335     1   49   79   0.330  -0.220        0
  3330  2012-48-355     1   49   79   0.330  -0.220        0
  3331  2012-55-348     1   49   79   0.330  -0.220        0
  3332  2012-66-1       1   49   79   0.330  -0.220        0
  3333  2012-71-365     1   49   79   0.330  -0.220        0
  3334  1979-56-23      1   50   79  -0.290   0.170        0
  3335  1979-61-55      1   50   79  -0.290   0.170        0
  3336  2002-16-361     2   49   80   0.480   0.210        0
  3337  2002-27-12      2   49   80   0.480   0.210        0
  3338  1961-56-23      2   50   80   0.010  -0.340        0
  3339  1961-66-26      2   50   80   0.010  -0.340        0
  3340  1961-71-41      2   50   80   0.010  -0.340        0
  3341  2080-42-356     2   48   82   0.480   0.100        0
  3342  2080-48-350     2   48   82   0.480   0.100        0
  3343  2080-55-347     2   48   82   0.480   0.100        0
  3344  2080-66-45      2   48   82   0.480   0.100        0
  3345  2042-55-347     2   49   83  -0.030  -0.280        0
  3346  2042-65-356     2   49   83  -0.030  -0.280        0
  3347  2042-71-54      2   49   83  -0.030  -0.280        0
  3348  2042-71-365     2   49   83  -0.030  -0.280        0
  3349  1964-33-38     -2   50   82  -0.070  -0.290        0
  3350  1976-42-357     2   50   81  -0.260   0.090        0
  3351  1976-48-355     2   50   81  -0.260   0.090        0
  3352  1976-55-348     2   50   81  -0.260   0.090        0
  3353  1976-60-305     2   50   81  -0.260   0.090        0
  3354  1976-66-1       2   50   81  -0.260   0.090        0
  3355  1976-71-55      2   50   81  -0.260   0.090        0
  3356  1976-71-365     2   50   81  -0.260   0.090        0
  3357  1970-42-356     2   50   81  -0.180   0.190        0
  3358  1970-48-336     2   50   81  -0.180   0.190        0
  3359  1970-56-19      2   50   81  -0.180   0.190        0
  3360  2051-43-1       2   49   83  -0.220   0.470        0
  3361  2051-65-356     2   49   83  -0.220   0.470        0
  3362  2051-71-54      2   49   83  -0.220   0.470        0
  3363  2051-71-365     2   49   83  -0.220   0.470        0
  3364  1973-11-214     2   50   83  -0.220   0.300        0
  3365  1969-11-190     2   50   83  -0.190   0.340        0
  3366  1946-66-5       1   50   84   0.000   0.350        0
  3367  1946-71-22      1   50   84   0.000   0.350        0
  3368  1946-71-365     1   50   84   0.000   0.350        0
  3369  1967-27-87     -2   50   84   0.040   0.410        0
  3370  1967-42-356     2   50   84   0.040   0.410        0
  3371  1967-48-350     2   50   84   0.040   0.410        0
  3372  1967-55-347     2   50   84   0.040   0.410        0
  3373  1967-66-5      -2   50   84   0.040   0.410        0
  3374  1967-71-22     -2   50   84   0.040   0.410        0
  3375  1967-71-365    -2   50   84   0.040   0.410        0
  3376  1939-42-356    -2   50   84   0.040   0.410        0
  3377  1939-48-350    -2   50   84   0.040   0.410        0
  3378  1939-55-347    -2   50   84   0.040   0.410        0
  3379  1939-60-356    -2   50   84   0.040   0.410        0
  3380  1939-71-22      2   50   84   0.040   0.410        0
  3381  1939-71-365     2   50   84   0.040   0.410        0
  3382  1975-16-361     1   50   85  -0.270   0.190        0
  3383  1975-27-12      1   50   85  -0.270   0.190        0
  3384  1945-56-25      2   50   85   0.040   0.190        0
  3385  1945-61-54      2   50   85   0.040   0.190        0
  3386  1945-66-27      2   50   85   0.040   0.190        0
  3387  1945-71-41      2   50   85   0.040   0.190        0
  3388  1711-42-352     3   52   24   0.470   0.340        0
  3389  1711-48-350     3   52   24   0.470   0.340        0
  3390  1711-55-354     3   52   24   0.470   0.340        0
  3391  1711-61-21      3   52   24   0.470   0.340        0
  3392  1711-66-39      3   52   24   0.470   0.340        0
  3393  1711-71-7       3   52   24   0.470   0.340        0
  3394  1711-71-365     3   52   24   0.470   0.340        0
  3395  1555-27-24     -2   53   25  -0.180  -0.040        0
  3396  1555-31-348    -2   53   25  -0.180  -0.040        0
  3397  1555-37-341    -2   53   25  -0.180  -0.040        0
  3398  1555-48-348    -2   53   25  -0.180  -0.040        0
  3399  1555-56-27     -2   53   25  -0.180  -0.040        0
  3400  1555-60-319    -2   53   25  -0.180  -0.040        0
  3401  1555-65-301    -2   53   25  -0.180  -0.040        0
  3402  1555-71-11     -2   53   25  -0.180  -0.040        0
  3403  1555-71-365    -2   53   25  -0.240  -0.030        0
  3404  1428-11-1       3   58   24   0.140  -0.230        0
  3405  1428-17-11      3   58   24   0.140  -0.230        0
  3406  1428-22-12      3   58   24   0.140  -0.230        0
  3407  1428-32-85      3   58   24   0.140  -0.230        0
  3408  1383-1-106      3   60   25  -0.370   0.300        0
  3409  1383-7-337      3   60   25  -0.370   0.300        0
  3410  1383-12-361     3   60   25  -0.370   0.300        0
  3411  1819-38-13     -2   52   31  -0.470   0.240        0
  3412  1819-42-352    -2   52   31  -0.470   0.240        0
  3413  1819-55-354    -2   52   31  -0.470   0.240        0
  3414  1820-71-12      2   52   30  -0.470   0.460        0
  3415  1820-71-365     2   52   30  -0.470   0.460        0
  3416  1748-17-6      -2   52   31  -0.010   0.400        0
  3417  1748-21-335    -2   52   31  -0.010   0.400        0
  3418  1748-48-348    -2   52   31  -0.010   0.400        0
  3419  1748-60-305    -2   52   31  -0.010   0.400        0
  3420  1748-66-1      -2   52   31  -0.010   0.400        0
  3421  1748-71-8      -2   52   31  -0.010   0.400        0
  3422  1748-71-365    -2   52   31  -0.010   0.400        0
  3423  1903-71-365     2   51   29  -0.430   0.390        0
  3424  1862-71-365     2   51   29   0.110  -0.490        0
  3425  1861-65-364     2   51   29   0.110   0.030        0
  3426  1861-71-365     2   51   29   0.110   0.030        0
  3427  1833-71-365     3   51   29   0.410  -0.070        0
  3428  1770-71-365     3   52   29  -0.200   0.320        0
  3429  1758-71-365     2   52   29  -0.170  -0.490        0
  3430  1709-22-38     -2   52   29   0.450  -0.270        0
  3431  1709-42-352    -2   52   29   0.450  -0.270        0
  3432  1709-55-354    -2   52   29   0.450  -0.270        0
  3433  1709-65-344    -2   52   29   0.450  -0.270        0
  3434  1709-71-365    -2   52   29   0.450  -0.270        0
  3435  1700-71-365     3   52   29   0.410  -0.070        0
  3436  1828-71-365     3   51   30   0.450  -0.190        0
  3437  1698-71-365     3   52   30   0.450   0.360        0
  3438  1883-65-336     3   51   28  -0.120  -0.140        0
  3439  1883-71-365     3   51   28  -0.120  -0.140        0
  3440  1838-71-365     3   51   27   0.370  -0.220        0
  3441  1805-71-365     2   52   26  -0.400   0.430        0
  3442  1702-16-354    -2   52   27   0.370  -0.120        0
  3443  1702-42-352    -2   52   27   0.370  -0.120        0
  3444  1702-48-349    -2   52   27   0.370  -0.120        0
  3445  1702-55-354    -2   52   27   0.370  -0.120        0
  3446  1702-61-31     -2   52   27   0.370  -0.120        0
  3447  1702-65-344    -2   52   27   0.370  -0.120        0
  3448  1702-71-365     2   52   27   0.370  -0.120        0
  3449  1704-71-365     3   52   27   0.360  -0.380        0
  3450  1829-71-365     3   51   28   0.450  -0.240        0
  3451  1710-17-6      -2   52   27   0.410   0.470        0
  3452  1710-42-352    -2   52   27   0.410   0.470        0
  3453  1710-48-349    -2   52   27   0.410   0.470        0
  3454  1710-55-354    -2   52   27   0.410   0.470        0
  3455  1710-61-31     -2   52   27   0.410   0.470        0
  3456  1710-65-344    -2   52   27   0.410   0.470        0
  3457  1710-71-365     3   52   27   0.410   0.470        0
  3458  1703-71-365     2   52   28   0.370  -0.340        0
  3459  1663-12-305    -2   53   27  -0.210   0.370        0
  3460  1663-42-352    -2   53   27  -0.210   0.370        0
  3461  1663-48-349    -2   53   27  -0.210   0.370        0
  3462  1663-55-354    -2   53   27  -0.210   0.370        0
  3463  1663-61-31     -2   53   27  -0.210   0.370        0
  3464  1663-65-338    -2   53   27  -0.210   0.370        0
  3465  1663-71-365     3   53   27  -0.210   0.370        0
  3466  1667-71-365     3   53   27  -0.140   0.170        0
  3467  1686-71-365     3   53   30  -0.470  -0.160        0
  3468  1653-71-365     2   53   29   0.060   0.420        0
  3469  1634-71-365     3   53   29   0.400   0.380        0
  3470  1637-71-365     3   53   30   0.370   0.330        0
  3471  1635-71-365     3   53   29   0.400  -0.500        0
  3472  1584-17-6      -2   54   29   0.400  -0.500        0
  3473  1584-22-38     -2   54   29   0.400  -0.500        0
  3474  1584-27-27     -2   54   29   0.400  -0.500        0
  3475  1584-32-85     -2   54   29   0.400  -0.500        0
  3476  1584-37-34     -2   54   29   0.400  -0.500        0
  3477  1584-42-352    -2   54   29   0.400  -0.500        0
  3478  1584-48-348    -2   54   29   0.400  -0.500        0
  3479  1584-55-354    -2   54   29   0.400  -0.500        0
  3480  1584-60-323    -2   54   29   0.400  -0.500        0
  3481  1584-65-344    -2   54   29   0.400  -0.500        0
  3482  1584-71-365    -2   54   29   0.400  -0.500        0
  3483  1585-71-365     2   54   28   0.400   0.470        0
  3484  1592-71-365     2   54   29   0.320   0.380        0
  3485  1591-71-365     2   54   30   0.320  -0.490        0
  3486  1590-71-365     3   54   30   0.320   0.260        0
  3487  1650-71-365     2   53   31   0.100  -0.120        0
  3488  1684-48-275     3   52   34   0.500  -0.030        0
  3489  1684-66-20      3   52   34   0.500  -0.030        0
  3490  1685-48-275     3   52   34   0.500  -0.030        0
  3491  1685-66-20      3   52   34   0.500  -0.030        0
  3492  1496-21-355     2   56   37   0.400  -0.500        0
  3493  1496-27-27      2   56   37   0.400  -0.500        0
  3494  1496-32-85      2   56   37   0.400  -0.500        0
  3495  1496-36-91      2   56   37   0.400  -0.500        0
  3496  1496-56-19      2   56   37   0.400  -0.500        0
  3497  1491-56-19      2   56   37   0.440  -0.500        0
  3498  1501-16-309     3   56   38   0.290   0.320        0
  3499  1497-48-300     3   56   36   0.210   0.010        0
  3500  1497-55-318     3   56   36   0.210   0.010        0
  3501  1497-60-313     3   56   36   0.210   0.010        0
  3502  1497-65-364     3   56   36   0.210   0.010        0
  3503  1497-71-350     3   56   36   0.210   0.010        0
  3504  1498-48-300     2   56   36   0.210   0.010        0
  3505  1498-55-318     2   56   36   0.210   0.010        0
  3506  1498-60-313     2   56   36   0.210   0.010        0
  3507  1498-65-364     2   56   36   0.210   0.010        0
  3508  1498-71-350     2   56   36   0.210   0.010        0
  3509  1442-36-1      -2   58   32  -0.420   0.500        0
  3510  1442-42-349    -2   58   32  -0.420   0.500        0
  3511  1442-48-349    -2   58   32  -0.420   0.500        0
  3512  1442-55-353    -2   58   32  -0.420   0.500        0
  3513  1442-61-21     -2   58   32  -0.420   0.500        0
  3514  1473-10-213     3   57   38  -0.170   0.320        0
  3515  1407-22-38     -2   59   34  -0.080   0.380        0
  3516  1407-42-349    -2   59   34  -0.080   0.380        0
  3517  1407-48-349    -2   59   34  -0.080   0.380        0
  3518  1407-55-353    -2   59   34  -0.080   0.380        0
  3519  1407-61-21     -2   59   34  -0.080   0.380        0
  3520  1407-66-34     -2   59   34  -0.080   0.380        0
  3521  1407-71-365    -2   59   34  -0.080   0.380        0
  3522  1412-71-365     1   59   34  -0.270   0.380        0
  3523  1393-38-335     3   59   33   0.420  -0.470        0
  3524  1393-42-349     3   59   33   0.420  -0.470        0
  3525  1393-48-349     3   59   33   0.420  -0.470        0
  3526  1393-55-353     3   59   33   0.420  -0.470        0
  3527  1393-71-365     3   59   33   0.420  -0.470        0
  3528  1376-36-78     -2   60   33   0.190   0.370        0
  3529  1376-48-349    -2   60   33   0.190   0.370        0
  3530  1376-61-21     -2   60   33   0.190   0.370        0
  3531  1376-66-34     -2   60   33   0.190   0.370        0
  3532  1376-71-56     -2   60   33   0.190   0.370        0
  3533  1376-71-365     3   60   33   0.190   0.370        0
  3534  1361-71-362     2   61   34   0.220   0.470        0
  3535  1362-71-362     2   61   34   0.220   0.470        0
  3536  1421-71-362     2   60   32  -0.160   0.130        0
  3537  1403-66-34      3   59   31   0.150  -0.260        0
  3538  1403-71-56      3   59   31   0.150  -0.260        0
  3539  1403-71-365     3   59   31   0.150  -0.260        0
  3540  1388-71-362     2   60   31  -0.160  -0.040        0
  3541  1364-17-12      2   60   31   0.410   0.480        0
  3542  1364-38-335     2   60   31   0.410   0.480        0
  3543  1364-42-349     2   60   31   0.410   0.480        0
  3544  1364-55-353     2   60   31   0.410   0.480        0
  3545  1364-66-34      2   60   31   0.410   0.480        0
  3546  1364-71-365     2   60   31   0.410   0.480        0
  3547  1365-17-12     -2   60   30   0.370   0.310        0
  3548  1365-22-6      -2   60   30   0.370   0.310        0
  3549  1365-27-27     -2   60   30   0.370   0.310        0
  3550  1365-32-85     -2   60   30   0.370   0.310        0
  3551  1365-37-17     -2   60   30   0.370   0.310        0
  3552  1365-42-349    -2   60   30   0.370   0.310        0
  3553  1365-48-349    -2   60   30   0.370   0.310        0
  3554  1365-55-353    -2   60   30   0.370   0.310        0
  3555  1365-60-364    -2   60   30   0.370   0.310        0
  3556  1365-66-1      -2   60   30   0.370   0.310        0
  3557  1365-71-365    -2   60   30   0.370   0.310        0
  3558  1335-71-362     2   61   31   0.210  -0.040        0
  3559  1313-36-114    -2   62   31  -0.480   0.410        0
  3560  1313-42-349    -2   62   31  -0.480   0.410        0
  3561  1313-48-349    -2   62   31  -0.480   0.410        0
  3562  1313-55-353    -2   62   31  -0.480   0.410        0
  3563  1313-61-21     -2   62   31  -0.480   0.410        0
  3564  1313-66-13     -2   62   31  -0.480   0.410        0
  3565  1266-17-12     -2   62   31   0.360  -0.300        0
  3566  1266-38-335    -2   62   31   0.360  -0.300        0
  3567  1266-42-349    -2   62   31   0.360  -0.300        0
  3568  1266-48-349    -2   62   31   0.360  -0.300        0
  3569  1266-56-3      -2   62   31   0.360  -0.300        0
  3570  1266-61-21     -2   62   31   0.360  -0.300        0
  3571  1266-66-12     -2   62   31   0.360  -0.300        0
  3572  1266-71-56     -2   62   31   0.360  -0.300        0
  3573  1266-71-365     2   62   31   0.360  -0.300        0
  3574  1258-71-362     2   63   32  -0.410   0.130        0
  3575  1265-17-12     -2   62   32   0.290  -0.290        0
  3576  1265-38-335    -2   62   32   0.290  -0.290        0
  3577  1265-42-349    -2   62   32   0.290  -0.290        0
  3578  1265-48-349    -2   62   32   0.290  -0.290        0
  3579  1265-55-353    -2   62   32   0.290  -0.290        0
  3580  1265-66-34     -2   62   32   0.290  -0.290        0
  3581  1265-71-56     -2   62   32   0.290  -0.290        0
  3582  1265-71-365    -2   62   32   0.290  -0.290        0
  3583  1336-17-12     -2   61   34  -0.090   0.380        0
  3584  1336-38-335    -2   61   34  -0.090   0.380        0
  3585  1336-42-349    -2   61   34  -0.090   0.380        0
  3586  1336-48-349    -2   61   34  -0.090   0.380        0
  3587  1336-55-353    -2   61   34  -0.090   0.380        0
  3588  1336-71-40     -2   61   34  -0.090   0.380        0
  3589  1336-71-365    -2   61   34  -0.090   0.380        0
  3590  1337-42-349    -2   61   32  -0.090   0.490        0
  3591  1337-55-353    -2   61   32  -0.090   0.490        0
  3592  1337-66-27     -2   61   32  -0.090   0.490        0
  3593  1337-71-365    -2   61   32  -0.090   0.490        0
  3594  1340-36-38     -2   61   32  -0.130   0.490        0
  3595  1340-42-349    -2   61   32  -0.130   0.490        0
  3596  1340-48-349    -2   61   32  -0.130   0.490        0
  3597  1340-55-353    -2   61   32  -0.130   0.490        0
  3598  1340-66-10     -2   61   32  -0.130   0.490        0
  3599  1340-71-56     -2   61   32  -0.130   0.490        0
  3600  1340-71-365    -2   61   32  -0.130   0.490        0
  3601  1264-38-335    -2   62   33   0.250  -0.420        0
  3602  1264-42-349    -2   62   33   0.250  -0.420        0
  3603  1264-71-70     -2   62   33   0.250  -0.420        0
  3604  1264-71-365    -2   62   33   0.250  -0.420        0
  3605  1257-66-33      3   62   33   0.330   0.330        0
  3606  1257-71-56      3   62   33   0.330   0.330        0
  3607  1257-71-365     3   62   33   0.330   0.330        0
  3608  1371-56-31      3   60   39   0.190  -0.230        0
  3609  1371-66-56      3   60   39   0.190  -0.230        0
  3610  1371-71-50      3   60   39   0.190  -0.230        0
  3611  1371-71-365     3   60   39   0.190  -0.230        0
  3612  1370-34-198     2   60   39   0.230   0.130        0
  3613  1370-56-31      2   60   39   0.230   0.130        0
  3614  1370-66-56      2   60   39   0.230   0.130        0
  3615  1370-71-50      2   60   39   0.230   0.130        0
  3616  1370-71-365     2   60   39   0.230   0.130        0
  3617  1849-12-32     -2   51   62   0.290   0.170        0
  3618  1849-17-34     -2   51   62   0.290   0.170        0
  3619  1849-22-1      -2   51   62   0.290   0.170        0
  3620  1847-48-362     2   51   62   0.370   0.140        0
  3621  1847-56-34      2   51   62   0.370   0.140        0
  3622  1847-61-3       2   51   62   0.370   0.140        0
  3623  1847-66-1       2   51   62   0.370   0.140        0
  3624  1847-71-56      2   51   62   0.370   0.140        0
  3625  1847-71-365     2   51   62   0.370   0.140        0
  3626  1742-1-365      1   52   59   0.060  -0.050        0
  3627  1741-1-365      3   52   59   0.060   0.180        0
  3628  1766-1-365      1   52   60  -0.170  -0.080        0
  3629  1848-56-34      2   51   58   0.330   0.270        0
  3630  1848-65-336     1   51   58   0.330   0.270        0
  3631  1848-71-365     1   51   58   0.330   0.270        0
  3632  1901-2-36       2   51   57  -0.390   0.290        0
  3633  1912-1-365      1   50   57   0.450  -0.160        0
  3634  1929-1-365      1   50   57   0.300  -0.100        0
  3635  1902-1-365      1   51   57  -0.390  -0.260        0
  3636  1872-71-68      2   51   57   0.100   0.360        0
  3637  1872-71-365     2   51   57   0.100   0.360        0
  3638  1871-56-34      2   51   57   0.100   0.360        0
  3639  1832-17-37      3   51   57   0.450   0.190        0
  3640  1832-22-1       3   51   57   0.450   0.190        0
  3641  1832-32-49      3   51   57   0.450   0.190        0
  3642  1832-42-362     3   51   57   0.450   0.190        0
  3643  1832-48-362     3   51   57   0.450   0.190        0
  3644  1832-56-34      3   51   57   0.450   0.190        0
  3645  1832-61-3       3   51   57   0.450   0.190        0
  3646  1832-71-21      3   51   57   0.450   0.190        0
  3647  1832-71-365     3   51   57   0.450   0.190        0
  3648  1767-27-40     -2   52   58  -0.320   0.430        0
  3649  1767-42-363    -2   52   58  -0.320   0.430        0
  3650  1767-56-34     -2   52   58  -0.320   0.430        0
  3651  1818-65-336     2   52   58  -0.440  -0.350        0
  3652  1804-71-76      2   52   58  -0.360  -0.350        0
  3653  1804-71-365     2   52   58  -0.360  -0.350        0
  3654  1793-42-362    -2   52   58  -0.170  -0.250        0
  3655  1793-48-334    -2   52   58  -0.170  -0.250        0
  3656  1793-56-34     -2   52   58  -0.170  -0.250        0
  3657  1793-65-336    -2   52   58  -0.170  -0.250        0
  3658  1793-71-21     -2   52   58  -0.170  -0.250        0
  3659  1793-71-365    -2   52   58  -0.170  -0.250        0
  3660  1891-1-365      2   51   56  -0.280  -0.270        0
  3661  1891-11-38      2   51   56  -0.280  -0.270        0
  3662  1891-17-37      2   51   56  -0.280  -0.270        0
  3663  1690-32-32      2   53   59  -0.480   0.370        0
  3664  1690-34-32      2   53   59  -0.480   0.370        0
  3665  1690-42-362     2   53   59  -0.480   0.370        0
  3666  1690-48-362     2   53   59  -0.480   0.370        0
  3667  1690-56-34      2   53   59  -0.480   0.370        0
  3668  1690-61-3       2   53   59  -0.480   0.370        0
  3669  1690-71-21      2   53   59  -0.480   0.370        0
  3670  1690-71-365     2   53   59  -0.480   0.370        0
  3671  1697-56-34      1   52   59   0.480  -0.380        0
  3672  1697-65-336     1   52   59   0.480  -0.380        0
  3673  1697-71-21      1   52   59   0.480  -0.380        0
  3674  1697-71-365     1   52   59   0.480  -0.380        0
  3675  1638-22-30      2   53   60   0.360  -0.370        0
  3676  1638-27-48      2   53   60   0.360  -0.370        0
  3677  1638-32-49      2   53   60   0.360  -0.370        0
  3678  1638-37-49      2   53   60   0.360  -0.370        0
  3679  1638-42-363     2   53   60   0.360  -0.370        0
  3680  1642-1-365      3   53   61   0.250  -0.260        0
  3681  1642-8-48       3   53   61   0.250  -0.260        0
  3682  1626-1-365      3   54   61  -0.300   0.420        0
  3683  1625-26-349    -2   54   62  -0.410  -0.090        0
  3684  1625-32-49     -2   54   62  -0.410  -0.090        0
  3685  1625-42-362    -2   54   62  -0.410  -0.090        0
  3686  1625-48-362    -2   54   62  -0.410  -0.090        0
  3687  1625-56-34     -2   54   62  -0.410  -0.090        0
  3688  1625-61-3      -2   54   62  -0.410  -0.090        0
  3689  1508-12-54     -2   56   61  -0.380  -0.260        0
  3690  1508-17-33     -2   56   61  -0.380  -0.260        0
  3691  1508-22-26     -2   56   61  -0.380  -0.260        0
  3692  1508-27-15     -2   56   61  -0.380  -0.260        0
  3693  1508-32-49     -2   56   61  -0.380  -0.260        0
  3694  1508-43-5      -2   56   61  -0.380  -0.260        0
  3695  1508-48-364    -2   56   61  -0.380  -0.260        0
  3696  1508-56-34     -2   56   61  -0.380  -0.260        0
  3697  1508-61-3      -2   56   61  -0.380  -0.260        0
  3698  1508-71-49     -2   56   61  -0.380  -0.260        0
  3699  1508-71-365    -2   56   61  -0.380  -0.260        0
  3700  1479-43-5      -2   57   60  -0.230  -0.040        0
  3701  1479-48-364    -2   57   60  -0.230  -0.040        0
  3702  1479-56-34     -2   57   60  -0.230  -0.040        0
  3703  1479-60-363    -2   57   60  -0.230  -0.040        0
  3704  1479-71-70     -2   57   60  -0.230  -0.040        0
  3705  1479-71-365    -2   57   60  -0.230  -0.040        0
  3706  1462-42-364     1   57   60   0.190  -0.170        0
  3707  1462-48-334     1   57   60   0.190  -0.170        0
  3708  1462-56-16      1   57   60   0.190  -0.170        0
  3709  1468-1-365      1   57   60   0.030   0.220        0
  3710  1471-11-278    -2   57   59  -0.270   0.440        0
  3711  1471-17-33     -2   57   59  -0.270   0.440        0
  3712  1471-22-26     -2   57   59  -0.270   0.440        0
  3713  1471-26-349    -2   57   59  -0.270   0.440        0
  3714  1471-43-5      -2   57   59  -0.270   0.440        0
  3715  1471-48-364     2   57   59  -0.270   0.440        0
  3716  1471-65-336    -2   57   59  -0.270   0.440        0
  3717  1471-71-70     -2   57   59  -0.270   0.440        0
  3718  1471-71-365    -2   57   59  -0.270   0.440        0
  3719  1461-12-54     -2   57   62   0.260   0.500        0
  3720  1461-17-44     -2   57   62   0.260   0.500        0
  3721  1461-22-30     -2   57   62   0.260   0.500        0
  3722  1461-27-59     -2   57   62   0.260   0.500        0
  3723  1461-42-363    -2   57   62   0.260   0.500        0
  3724  1461-48-336    -2   57   62   0.260   0.500        0
  3725  1461-56-34     -2   57   62   0.260   0.500        0
  3726  1461-60-363    -2   57   62   0.260   0.500        0
  3727  1461-66-59     -2   57   62   0.260   0.500        0
  3728  1461-71-70     -2   57   62   0.260   0.500        0
  3729  1461-71-365    -2   57   62   0.260   0.500        0
  3730  1387-42-362    -2   60   61  -0.480  -0.030        0
  3731  1387-49-2      -2   60   61  -0.480  -0.030        0
  3732  1387-56-33     -2   60   61  -0.480  -0.030        0
  3733  1387-60-363    -2   60   61  -0.480  -0.030        0
  3734  1387-66-59     -2   60   61  -0.480  -0.030        0
  3735  1387-71-70     -2   60   61  -0.480  -0.030        0
  3736  1387-71-365    -2   60   61  -0.480  -0.030        0
  3737  1391-17-41     -3   59   62   0.250   0.400        0
  3738  1391-22-31     -3   59   62   0.250   0.400        0
  3739  1391-42-362    -2   59   62   0.250   0.400        0
  3740  1391-48-338    -2   59   62   0.250   0.400        0
  3741  1391-56-16     -2   59   62   0.250   0.400        0
  3742  1391-61-59     -2   59   62   0.250   0.400        0
  3743  1391-66-27     -2   59   62   0.250   0.400        0
  3744  1391-71-56     -2   59   62   0.250   0.400        0
  3745  1386-17-41     -3   59   62   0.290   0.370        0
  3746  1386-22-31     -3   59   62   0.290   0.370        0
  3747  1386-42-362    -2   59   62   0.290   0.370        0
  3748  1386-48-337    -2   59   62   0.290   0.370        0
  3749  1386-56-16     -2   59   62   0.290   0.370        0
  3750  1398-48-335    -2   59   62   0.290   0.370        0
  3751  1401-2-1        2   59   60   0.100  -0.430        0
  3752  1401-12-53      2   59   60   0.100  -0.430        0
  3753  1401-17-60      2   59   60   0.100  -0.430        0
  3754  1401-22-26      2   59   60   0.100  -0.430        0
  3755  1427-17-39      1   58   59   0.410  -0.180        0
  3756  1427-22-31      1   58   59   0.410  -0.180        0
  3757  1427-42-362     1   58   59   0.410  -0.180        0
  3758  1427-48-364     1   58   59   0.410  -0.180        0
  3759  1427-56-33      1   58   59   0.410  -0.180        0
  3760  1378-42-364     1   60   59  -0.020   0.110        0
  3761  1400-1-32       2   59   60   0.140  -0.400        0
  3762  1400-12-53      2   59   60   0.140  -0.400        0
  3763  1400-17-60      2   59   60   0.140  -0.400        0
  3764  1400-22-26      2   59   60   0.140  -0.400        0
  3765  1400-27-48      2   59   60   0.140  -0.400        0
  3766  1400-36-3       2   59   60   0.140  -0.400        0
  3767  1400-43-5       2   59   60   0.140  -0.400        0
  3768  1400-48-364     2   59   60   0.140  -0.400        0
  3769  1400-56-33      2   59   60   0.140  -0.400        0
  3770  1400-60-363     2   59   60   0.140  -0.400        0
  3771  1400-71-365     2   59   60   0.140  -0.400        0
  3772  1405-7-308      2   59   59   0.140  -0.380        0
  3773  1405-10-34      2   59   59   0.140  -0.380        0
  3774  1405-43-5       2   59   59   0.140  -0.380        0
  3775  1405-48-364     2   59   59   0.140  -0.380        0
  3776  1405-56-33      2   59   59   0.140  -0.380        0
  3777  1405-66-13      2   59   59   0.140  -0.380        0
  3778  1405-71-365     2   59   59   0.140  -0.380        0
  3779  1349-17-41     -2   61   58  -0.330   0.070        0
  3780  1349-22-30     -2   61   58  -0.330   0.070        0
  3781  1329-1-274      2   61   58   0.170   0.170        0
  3782  1329-17-41      2   61   58   0.170   0.170        0
  3783  1329-22-31      2   61   58   0.170   0.170        0
  3784  1329-42-364     2   61   58   0.170   0.170        0
  3785  1329-56-16      2   61   58   0.170   0.170        0
  3786  1329-66-26      2   61   58   0.170   0.170        0
  3787  1282-1-277      1   62   58   0.080  -0.030        0
  3788  1283-1-309      2   62   58   0.200   0.330        0
  3789  1283-6-340      2   62   58   0.200   0.330        0
  3790  1283-11-350     2   62   58   0.200   0.330        0
  3791  1283-16-301     2   62   58   0.200   0.330        0
  3792  1283-22-30      2   62   58   0.200   0.330        0
  3793  1283-27-10      2   62   58   0.200   0.330        0
  3794  1283-35-345     2   62   58   0.200   0.330        0
  3795  1274-6-288      2   62   59   0.200  -0.440        0
  3796  1274-12-54      2   62   59   0.200  -0.440        0
  3797  1274-17-41      2   62   59   0.200  -0.440        0
  3798  1274-22-30      2   62   59   0.200  -0.440        0
  3799  1356-43-1      -2   61   60  -0.450   0.220        0
  3800  1347-66-49      1   61   60  -0.290   0.410        0
  3801  1345-55-350    -2   61   60  -0.290   0.410        0
  3802  1345-61-33     -2   61   60  -0.290   0.410        0
  3803  1345-66-49     -2   61   60  -0.290   0.410        0
  3804  1345-71-68     -2   61   60  -0.290   0.410        0
  3805  1345-71-365     3   61   60  -0.290   0.410        0
  3806  1321-12-57      2   61   60   0.170   0.350        0
  3807  1321-17-41      2   61   60   0.170   0.350        0
  3808  1321-22-27      2   61   60   0.170   0.350        0
  3809  1321-27-51      2   61   60   0.170   0.350        0
  3810  1360-56-34     -2   60   59   0.440   0.180        0
  3811  1360-60-362    -2   60   59   0.440   0.180        0
  3812  1360-65-348    -2   60   59   0.440   0.180        0
  3813  1360-71-48     -2   60   59   0.440   0.180        0
  3814  1360-71-365    -2   60   59   0.440   0.180        0
  3815  1328-1-277      1   61   59   0.170   0.280        0
  3816  1328-6-295      1   61   59   0.170   0.280        0
  3817  1306-11-41     -2   61   60   0.400  -0.400        0
  3818  1306-17-41     -2   61   60   0.400  -0.400        0
  3819  1306-22-27     -2   61   60   0.400  -0.400        0
  3820  1306-43-5       2   61   60   0.400  -0.400        0
  3821  1306-48-364     2   61   60   0.400  -0.400        0
  3822  1306-56-33      2   61   60   0.400  -0.400        0
  3823  1306-60-363     2   61   60   0.400  -0.400        0
  3824  1306-66-6      -2   61   60   0.400  -0.400        0
  3825  1306-71-60     -2   61   60   0.400  -0.400        0
  3826  1306-71-365    -2   61   60   0.400  -0.400        0
  3827  1307-1-274      2   61   59   0.360   0.210        0
  3828  1307-11-41      2   61   59   0.360   0.210        0
  3829  1307-17-41      2   61   59   0.360   0.210        0
  3830  1307-22-27      2   61   59   0.360   0.210        0
  3831  1307-26-349     2   61   59   0.360   0.210        0
  3832  1307-48-364     2   61   59   0.360   0.210        0
  3833  1307-56-33      2   61   59   0.360   0.210        0
  3834  1307-71-60      2   61   59   0.360   0.210        0
  3835  1307-71-365     2   61   59   0.360   0.210        0
  3836  1304-1-274      3   62   59  -0.410   0.180        0
  3837  1304-11-41      3   62   59  -0.410   0.180        0
  3838  1304-17-32      3   62   59  -0.410   0.180        0
  3839  1304-22-27      3   62   59  -0.410   0.180        0
  3840  1304-26-302     3   62   59  -0.410   0.180        0
  3841  1304-48-364     3   62   59  -0.410   0.180        0
  3842  1304-56-33      3   62   59  -0.410   0.180        0
  3843  1304-60-356     3   62   59  -0.410   0.180        0
  3844  1304-71-60      3   62   59  -0.410   0.180        0
  3845  1281-12-54      2   62   59   0.080  -0.280        0
  3846  1281-17-41      2   62   59   0.080  -0.280        0
  3847  1281-22-30      2   62   59   0.080  -0.280        0
  3848  1281-32-50      2   62   59   0.080  -0.280        0
  3849  1281-37-49      2   62   59   0.080  -0.280        0
  3850  1292-1-274      2   62   59  -0.070   0.150        0
  3851  1292-17-46      2   62   59  -0.070   0.150        0
  3852  1292-22-27      2   62   59  -0.070   0.150        0
  3853  1292-26-349     2   62   59  -0.070   0.150        0
  3854  1292-43-5       2   62   59  -0.070   0.150        0
  3855  1292-48-364     2   62   59  -0.070   0.150        0
  3856  1272-1-60       2   62   59   0.200   0.280        0
  3857  1272-7-176      2   62   59   0.200   0.280        0
  3858  1272-60-363     2   62   59   0.200   0.280        0
  3859  1272-65-348     2   62   59   0.200   0.280        0
  3860  1272-71-365     2   62   59   0.200   0.280        0
  3861  1298-42-362    -2   62   60  -0.410   0.450        0
  3862  1298-56-10     -2   62   60  -0.410   0.450        0
  3863  1298-60-363    -2   62   60  -0.410   0.450        0
  3864  1298-66-13     -2   62   60  -0.410   0.450        0
  3865  1298-71-365    -2   62   60  -0.410   0.450        0
  3866  1299-56-10      2   62   60  -0.340  -0.010        0
  3867  1299-66-13      1   62   60  -0.340  -0.010        0
  3868  1299-71-365     1   62   60  -0.340  -0.010        0
  3869  1294-43-5       2   62   60  -0.220  -0.200        0
  3870  1294-48-364     2   62   60  -0.220  -0.200        0
  3871  1294-56-10      2   62   60  -0.220  -0.200        0
  3872  1294-60-363     2   62   60  -0.220  -0.200        0
  3873  1294-66-13     -2   62   60  -0.220  -0.200        0
  3874  1294-71-365    -2   62   60  -0.220  -0.200        0
  3875  1296-71-60     -2   62   60  -0.260  -0.170        0
  3876  1288-56-10      2   62   60  -0.150  -0.170        0
  3877  1288-66-13      1   62   60  -0.150  -0.170        0
  3878  1288-71-41      1   62   60  -0.150  -0.170        0
  3879  1288-71-365     1   62   60  -0.150  -0.170        0
  3880  1285-60-361    -2   62   60  -0.070   0.450        0
  3881  1285-71-365    -2   62   60  -0.070   0.450        0
  3882  1291-60-361    -2   62   60  -0.180   0.150        0
  3883  1291-71-365    -2   62   60  -0.180   0.150        0
  3884  1287-60-361    -2   62   60  -0.150   0.220        0
  3885  1287-71-365    -2   62   60  -0.150   0.220        0
  3886  1342-71-62     -2   61   62  -0.180   0.070        0
  3887  1342-71-365    -2   61   62  -0.180   0.070        0
  3888  1346-11-40      2   61   61  -0.290   0.490        0
  3889  1346-17-44      2   61   61  -0.290   0.490        0
  3890  1346-22-27      2   61   61  -0.290   0.490        0
  3891  1346-27-59      2   61   61  -0.290   0.490        0
  3892  1346-32-50      2   61   61  -0.290   0.490        0
  3893  1346-42-362     2   61   61  -0.290   0.490        0
  3894  1346-48-357     2   61   61  -0.290   0.490        0
  3895  1346-56-32      2   61   61  -0.290   0.490        0
  3896  1346-60-363     2   61   61  -0.290   0.490        0
  3897  1346-71-62      2   61   61  -0.290   0.490        0
  3898  1346-71-365     2   61   61  -0.290   0.490        0
  3899  1351-71-62      1   61   62  -0.370  -0.410        0
  3900  1351-71-365     1   61   62  -0.370  -0.410        0
  3901  1305-12-57      2   62   61  -0.490   0.260        0
  3902  1305-17-46      2   62   61  -0.490   0.260        0
  3903  1305-22-27      2   62   61  -0.490   0.260        0
  3904  1305-42-362     2   62   61  -0.490   0.260        0
  3905  1305-48-357     2   62   61  -0.490   0.260        0
  3906  1305-55-357     2   62   61  -0.490   0.260        0
  3907  1305-60-342     2   62   61  -0.490   0.260        0
  3908  1305-66-59      2   62   61  -0.490   0.260        0
  3909  1305-71-20      2   62   61  -0.490   0.260        0
  3910  1305-71-365     2   62   61  -0.490   0.260        0
  3911  1286-1-91       1   62   61  -0.110  -0.130        0
  3912  1284-60-361    -2   62   61  -0.030  -0.330        0
  3913  1284-65-356    -2   62   61  -0.030  -0.330        0
  3914  1284-71-365    -2   62   61  -0.030  -0.330        0
  3915  1271-42-362    -2   62   61   0.200  -0.230        0
  3916  1271-56-10     -2   62   61   0.200  -0.230        0
  3917  1271-60-363    -2   62   61   0.200  -0.230        0
  3918  1271-66-13     -3   62   61   0.200  -0.230        0
  3919  1271-71-62     -3   62   61   0.200  -0.230        0
  3920  1271-71-365    -3   62   61   0.200  -0.230        0
  3921  1293-56-10      2   62   61  -0.220  -0.260        0
  3922  1293-66-13      1   62   61  -0.220  -0.260        0
  3923  1293-71-47      1   62   61  -0.220  -0.260        0
  3924  1293-71-365     1   62   61  -0.220  -0.260        0
  3925  1898-10-252     1   51   74  -0.440  -0.250        0
  3926  1873-10-252     1   51   73   0.060   0.260        0
  3927  1763-10-252     1   52   74  -0.180  -0.030        0
  3928  1762-7-161     -2   52   74  -0.180   0.430        0
  3929  1762-22-60     -2   52   74  -0.180   0.430        0
  3930  1776-42-355    -2   52   74  -0.260   0.400        0
  3931  1776-56-27     -2   52   74  -0.260   0.400        0
  3932  1776-66-54     -2   52   74  -0.260   0.400        0
  3933  1776-71-64     -2   52   74  -0.260   0.400        0
  3934  1776-71-365    -2   52   74  -0.260   0.400        0
  3935  1775-42-355     2   52   74  -0.300   0.400        0
  3936  1775-56-27      2   52   74  -0.300   0.400        0
  3937  1775-66-54      2   52   74  -0.300   0.400        0
  3938  1775-71-64      2   52   74  -0.300   0.400        0
  3939  1775-71-365     2   52   74  -0.300   0.400        0
  3940  1905-10-252     1   51   72  -0.440   0.410        0
  3941  1875-10-252     1   51   72   0.020  -0.300        0
  3942  1877-22-79      1   51   72  -0.020  -0.010        0
  3943  1877-42-356     1   51   72  -0.020  -0.010        0
  3944  1877-48-355     1   51   72  -0.020  -0.010        0
  3945  1877-66-59      1   51   72  -0.020  -0.010        0
  3946  1877-71-64      1   51   72  -0.020  -0.010        0
  3947  1877-71-365     1   51   72  -0.020  -0.010        0
  3948  1878-42-356     2   51   72  -0.020   0.020        0
  3949  1878-48-356     2   51   72  -0.020   0.020        0
  3950  1878-56-10      2   51   72  -0.020   0.020        0
  3951  1878-61-26      2   51   72  -0.020   0.020        0
  3952  1878-66-59      2   51   72  -0.020   0.020        0
  3953  1878-71-64      2   51   72  -0.020   0.020        0
  3954  1878-71-365     2   51   72  -0.020   0.020        0
  3955  1926-42-363     1   50   71   0.370  -0.210        0
  3956  1886-22-79      1   51   71  -0.210   0.110        0
  3957  1886-26-349     1   51   71  -0.210   0.110        0
  3958  1886-42-362     1   51   71  -0.210   0.110        0
  3959  1886-48-357     1   51   71  -0.210   0.110        0
  3960  1886-56-24      1   51   71  -0.210   0.110        0
  3961  1886-66-1       1   51   71  -0.210   0.110        0
  3962  1886-71-62      1   51   71  -0.210   0.110        0
  3963  1886-71-365     1   51   71  -0.210   0.110        0
  3964  1852-10-255     1   51   71   0.250   0.440        0
  3965  1822-10-255     1   52   71  -0.480  -0.120        0
  3966  1786-66-19      1   52   71  -0.290   0.180        0
  3967  1786-71-33      1   52   71  -0.290   0.180        0
  3968  1786-71-365     1   52   71  -0.290   0.180        0
  3969  1851-10-252     1   51   72   0.250   0.410        0
  3970  1791-12-116    -2   52   72  -0.250  -0.010        0
  3971  1791-22-79     -2   52   72  -0.250  -0.010        0
  3972  1791-26-294    -2   52   72  -0.250  -0.010        0
  3973  1791-42-356    -2   52   72  -0.250  -0.010        0
  3974  1791-48-356    -2   52   72  -0.250  -0.010        0
  3975  1791-66-56     -2   52   72  -0.250  -0.010        0
  3976  1791-71-33     -2   52   72  -0.250  -0.010        0
  3977  1791-71-365    -2   52   72  -0.250  -0.010        0
  3978  1785-42-356    -2   52   72  -0.290  -0.010        0
  3979  1785-48-356    -2   52   72  -0.290  -0.010        0
  3980  1785-56-10     -2   52   72  -0.290  -0.010        0
  3981  1785-61-26     -2   52   72  -0.290  -0.010        0
  3982  1785-66-56     -2   52   72  -0.290  -0.010        0
  3983  1785-71-33     -2   52   72  -0.290  -0.010        0
  3984  1785-71-365    -2   52   72  -0.290  -0.010        0
  3985  1928-10-256     1   50   70   0.290   0.170        0
  3986  1879-12-111    -2   51   70  -0.020   0.200        0
  3987  1879-22-79     -2   51   70  -0.020   0.200        0
  3988  1879-42-362    -2   51   70  -0.020   0.200        0
  3989  1879-48-357    -2   51   70  -0.020   0.200        0
  3990  1879-55-353    -2   51   70  -0.020   0.200        0
  3991  1879-60-313    -2   51   70  -0.020   0.200        0
  3992  1879-71-49     -2   51   70  -0.020   0.200        0
  3993  1879-71-365    -2   51   70  -0.020   0.200        0
  3994  1824-10-256     2   52   69  -0.480   0.160        0
  3995  1811-7-156     -2   52   69  -0.400  -0.390        0
  3996  1811-22-79     -2   52   69  -0.400  -0.390        0
  3997  1811-32-32     -2   52   69  -0.400  -0.390        0
  3998  1811-48-357    -2   52   69  -0.400  -0.390        0
  3999  1811-55-354    -2   52   69  -0.400  -0.390        0
  4000  1811-60-349    -2   52   69  -0.400  -0.390        0
  4001  1811-65-355    -2   52   69  -0.400  -0.390        0
  4002  1811-71-68     -2   52   69  -0.400  -0.390        0
  4003  1811-71-365    -2   52   69  -0.400  -0.390        0
  4004  1777-10-256     1   52   69  -0.210   0.160        0
  4005  1823-42-362    -2   52   70  -0.480  -0.030        0
  4006  1823-48-357    -2   52   70  -0.480  -0.030        0
  4007  1823-56-32     -2   52   70  -0.480  -0.030        0
  4008  1823-60-313    -2   52   70  -0.480  -0.030        0
  4009  1823-66-19     -2   52   70  -0.480  -0.030        0
  4010  1823-71-49     -2   52   70  -0.480  -0.030        0
  4011  1823-71-365    -2   52   70  -0.480  -0.030        0
  4012  1744-10-256     1   52   70   0.020  -0.320        0
  4013  1907-12-116     2   50   68   0.450   0.310        0
  4014  1907-22-79      2   50   68   0.450   0.310        0
  4015  1907-42-362     2   50   68   0.450   0.310        0
  4016  1907-48-357     2   50   68   0.450   0.310        0
  4017  1907-71-365     2   50   68   0.450   0.310        0
  4018  1906-42-362    -2   51   68  -0.480   0.380        0
  4019  1906-48-357    -2   51   68  -0.480   0.380        0
  4020  1906-55-356    -2   51   68  -0.480   0.380        0
  4021  1906-60-341    -2   51   68  -0.480   0.380        0
  4022  1906-65-355    -2   51   68  -0.480   0.380        0
  4023  1906-71-32     -2   51   68  -0.480   0.380        0
  4024  1906-71-365    -2   51   68  -0.480   0.380        0
  4025  1899-66-19      1   51   67  -0.400   0.440        0
  4026  1899-71-32      1   51   67  -0.400   0.440        0
  4027  1899-71-365     1   51   67  -0.400   0.440        0
  4028  1778-12-261     2   52   67  -0.210   0.440        0
  4029  1764-10-257     1   52   67  -0.170   0.440        0
  4030  1765-42-362    -2   52   67  -0.290   0.210        0
  4031  1765-48-357    -2   52   67  -0.290   0.210        0
  4032  1765-55-354    -2   52   67  -0.290   0.210        0
  4033  1765-60-349    -2   52   67  -0.290   0.210        0
  4034  1765-66-56     -2   52   67  -0.290   0.210        0
  4035  1765-71-32     -2   52   67  -0.290   0.210        0
  4036  1765-71-365    -2   52   67  -0.290   0.210        0
  4037  1816-10-153     1   52   68  -0.440   0.190        0
  4038  1825-42-335    -2   52   68  -0.480   0.120        0
  4039  1825-48-357    -2   52   68  -0.480   0.120        0
  4040  1825-56-27     -2   52   68  -0.480   0.120        0
  4041  1825-61-42     -2   52   68  -0.480   0.120        0
  4042  1825-66-19     -2   52   68  -0.480   0.120        0
  4043  1825-71-32     -2   52   68  -0.480   0.120        0
  4044  1825-71-365    -2   52   68  -0.480   0.120        0
  4045  1888-22-79      2   51   66  -0.240   0.070        0
  4046  1888-32-32      2   51   66  -0.240   0.070        0
  4047  1888-42-362     2   51   66  -0.240   0.070        0
  4048  1888-48-357     2   51   66  -0.240   0.070        0
  4049  1888-65-355     2   51   66  -0.240   0.070        0
  4050  1888-71-32      2   51   66  -0.240   0.070        0
  4051  1888-71-365     2   51   66  -0.240   0.070        0
  4052  1890-42-362    -2   51   66  -0.240   0.070        0
  4053  1890-48-357    -2   51   66  -0.240   0.070        0
  4054  1890-55-350    -2   51   66  -0.240   0.070        0
  4055  1890-61-42     -2   51   66  -0.240   0.070        0
  4056  1890-66-19     -2   51   66  -0.240   0.070        0
  4057  1890-71-32     -2   51   66  -0.240   0.070        0
  4058  1890-71-365    -2   51   66  -0.240   0.070        0
  4059  1812-12-91      1   51   66   0.440   0.100        0
  4060  1812-22-62      1   51   66   0.440   0.100        0
  4061  1812-32-60      1   51   66   0.440   0.100        0
  4062  1827-42-362     2   51   66   0.480   0.100        0
  4063  1827-48-357     2   51   66   0.480   0.100        0
  4064  1827-56-25      2   51   66   0.480   0.100        0
  4065  1827-61-42      2   51   66   0.480   0.100        0
  4066  1827-66-19      2   51   66   0.480   0.100        0
  4067  1827-71-32      2   51   66   0.480   0.100        0
  4068  1827-71-365     2   51   66   0.480   0.100        0
  4069  1779-12-109     1   52   66  -0.250  -0.250        0
  4070  1779-17-80      1   52   66  -0.250  -0.250        0
  4071  1779-22-79      1   52   66  -0.250  -0.250        0
  4072  1779-42-362     1   52   66  -0.250  -0.250        0
  4073  1870-42-364     1   51   64   0.180   0.180        0
  4074  1817-56-20      2   52   64  -0.480   0.120        0
  4075  1817-66-34      2   52   64  -0.480   0.120        0
  4076  1747-71-60      2   52   64  -0.020  -0.400        0
  4077  1722-1-152      1   52   64   0.400   0.480        0
  4078  1722-22-80      1   52   64   0.400   0.480        0
  4079  1722-26-349     1   52   64   0.400   0.480        0
  4080  1722-32-32      1   52   64   0.400   0.480        0
  4081  1722-42-362     1   52   64   0.400   0.480        0
  4082  1722-48-357     1   52   64   0.400   0.480        0
  4083  1722-56-24      1   52   64   0.400   0.480        0
  4084  1722-61-11      1   52   64   0.400   0.480        0
  4085  1722-66-59      1   52   64   0.400   0.480        0
  4086  1722-71-56      1   52   64   0.400   0.480        0
  4087  1722-71-365     1   52   64   0.400   0.480        0
  4088  1668-56-20      1   53   64  -0.140   0.090        0
  4089  1666-66-34      2   53   64  -0.100   0.190        0
  4090  1718-56-20     -2   52   63   0.250   0.310        0
  4091  1718-61-59     -2   52   63   0.250   0.310        0
  4092  1718-66-34     -2   52   63   0.250   0.310        0
  4093  1662-56-20     -2   53   63   0.010   0.050        0
  4094  1664-66-34      2   53   63  -0.210   0.440        0
  4095  1664-71-60      2   53   63  -0.210   0.440        0
  4096  1641-66-34      2   53   64   0.240   0.380        0
  4097  1619-1-365     -2   54   65  -0.300  -0.490        0
  4098  1619-8-57      -2   54   65  -0.300  -0.490        0
  4099  1619-12-59     -2   54   65  -0.300  -0.490        0
  4100  1619-17-87     -2   54   65  -0.300  -0.490        0
  4101  1619-22-79     -2   54   65  -0.300  -0.490        0
  4102  1619-42-335    -2   54   65  -0.300  -0.490        0
  4103  1608-35-121    -2   54   65  -0.070  -0.490        0
  4104  1608-42-362    -2   54   65  -0.070  -0.490        0
  4105  1608-48-357    -2   54   65  -0.070  -0.490        0
  4106  1608-55-340    -2   54   65  -0.070  -0.490        0
  4107  1608-60-348    -2   54   65  -0.070  -0.490        0
  4108  1608-66-5      -2   54   65  -0.070  -0.490        0
  4109  1608-71-1      -2   54   65  -0.070  -0.490        0
  4110  1608-71-365    -2   54   65  -0.070  -0.490        0
  4111  1714-56-33      1   52   66   0.320  -0.220        0
  4112  1714-71-29      1   52   66   0.320  -0.220        0
  4113  1714-71-365     1   52   66   0.320  -0.220        0
  4114  1715-66-59      1   52   66   0.320  -0.220        0
  4115  1715-71-29      1   52   66   0.320  -0.220        0
  4116  1715-71-365     1   52   66   0.320  -0.220        0
  4117  1716-66-59      1   52   66   0.320  -0.420        0
  4118  1716-71-29      1   52   66   0.320  -0.420        0
  4119  1716-71-365     1   52   66   0.320  -0.420        0
  4120  1717-71-32      2   52   66   0.320  -0.420        0
  4121  1717-71-365     2   52   66   0.320  -0.420        0
  4122  1689-71-29      1   52   66   0.480  -0.420        0
  4123  1689-71-365     1   52   66   0.480  -0.420        0
  4124  1696-66-59      1   52   66   0.480  -0.420        0
  4125  1696-71-29      1   52   66   0.480  -0.420        0
  4126  1696-71-365     1   52   66   0.480  -0.420        0
  4127  1673-2-274     -2   53   66  -0.370   0.460        0
  4128  1673-8-57      -2   53   66  -0.370   0.460        0
  4129  1673-12-59     -2   53   66  -0.370   0.460        0
  4130  1673-17-87     -2   53   66  -0.370   0.460        0
  4131  1673-22-79     -2   53   66  -0.370   0.460        0
  4132  1673-42-363    -2   53   66  -0.370   0.460        0
  4133  1673-48-357    -2   53   66  -0.370   0.460        0
  4134  1673-56-24     -2   53   66  -0.370   0.460        0
  4135  1723-1-32       2   52   66   0.320  -0.480        0
  4136  1723-12-59      2   52   66   0.320  -0.480        0
  4137  1723-17-87      2   52   66   0.320  -0.480        0
  4138  1723-22-80      2   52   66   0.320  -0.480        0
  4139  1723-42-363     2   52   66   0.320  -0.480        0
  4140  1723-48-357     2   52   66   0.320  -0.480        0
  4141  1723-56-24      2   52   66   0.320  -0.480        0
  4142  1723-60-348     2   52   66   0.320  -0.480        0
  4143  1723-66-59      2   52   66   0.320  -0.480        0
  4144  1723-71-32      2   52   66   0.320  -0.480        0
  4145  1723-71-365     2   52   66   0.320  -0.480        0
  4146  1724-1-365      2   52   65   0.360   0.130        0
  4147  1724-12-59      2   52   65   0.360   0.130        0
  4148  1724-17-82      2   52   65   0.360   0.130        0
  4149  1724-22-80      2   52   65   0.360   0.130        0
  4150  1724-42-363     2   52   65   0.360   0.130        0
  4151  1724-48-357     2   52   65   0.360   0.130        0
  4152  1724-56-20      2   52   65   0.360   0.130        0
  4153  1724-60-348     2   52   65   0.360   0.130        0
  4154  1724-66-59      2   52   65   0.360   0.130        0
  4155  1724-71-56      2   52   65   0.360   0.130        0
  4156  1724-71-365     2   52   65   0.360   0.130        0
  4157  1694-17-82     -2   53   68  -0.490   0.220        0
  4158  1694-22-80     -2   53   68  -0.490   0.220        0
  4159  1699-42-363     2   52   68   0.440   0.090        0
  4160  1699-48-357     2   52   68   0.440   0.090        0
  4161  1699-55-356     2   52   68   0.440   0.090        0
  4162  1699-60-349     2   52   68   0.440   0.090        0
  4163  1699-66-56      2   52   68   0.440   0.090        0
  4164  1699-71-32      2   52   68   0.440   0.090        0
  4165  1699-71-365     2   52   68   0.440   0.090        0
  4166  1695-7-158      2   52   68   0.480  -0.330        0
  4167  1695-42-363     2   52   68   0.480  -0.330        0
  4168  1695-48-357     2   52   68   0.480  -0.330        0
  4169  1695-56-24      2   52   68   0.480  -0.330        0
  4170  1695-60-336     2   52   68   0.480  -0.330        0
  4171  1695-66-56      2   52   68   0.480  -0.330        0
  4172  1695-71-56      2   52   68   0.480  -0.330        0
  4173  1695-71-365     2   52   68   0.480  -0.330        0
  4174  1658-2-217     -2   53   67   0.090  -0.150        0
  4175  1658-8-58      -2   53   67   0.090  -0.150        0
  4176  1658-12-59     -2   53   67   0.090  -0.150        0
  4177  1658-17-87     -2   53   67   0.090  -0.150        0
  4178  1658-22-81     -2   53   67   0.090  -0.150        0
  4179  1652-42-363     2   53   67   0.130  -0.150        0
  4180  1652-48-357     2   53   67   0.130  -0.150        0
  4181  1652-56-24      2   53   67   0.130  -0.150        0
  4182  1652-60-349     2   53   67   0.130  -0.150        0
  4183  1652-66-1       2   53   67   0.130  -0.150        0
  4184  1652-71-76      2   53   67   0.130  -0.150        0
  4185  1652-71-365     2   53   67   0.130  -0.150        0
  4186  1633-12-96      1   53   68   0.430   0.150        0
  4187  1633-17-89      1   53   68   0.430   0.150        0
  4188  1633-42-355     1   53   68   0.430   0.150        0
  4189  1713-61-54      2   52   70   0.320   0.230        0
  4190  1713-66-56      2   52   70   0.320   0.230        0
  4191  1713-71-64      2   52   70   0.320   0.230        0
  4192  1713-71-365     2   52   70   0.320   0.230        0
  4193  1670-42-357    -2   53   70  -0.180  -0.350        0
  4194  1656-22-80      1   53   70   0.130  -0.320        0
  4195  1656-31-351     1   53   70   0.130  -0.320        0
  4196  1656-37-343     1   53   70   0.130  -0.320        0
  4197  1656-55-360     1   53   70   0.130  -0.320        0
  4198  1656-61-42      1   53   70   0.130  -0.320        0
  4199  1656-66-56      1   53   70   0.130  -0.320        0
  4200  1656-71-33      1   53   70   0.130  -0.320        0
  4201  1656-71-365     1   53   70   0.130  -0.320        0
  4202  1655-17-89     -2   53   70   0.090   0.040        0
  4203  1655-22-80     -2   53   70   0.090   0.040        0
  4204  1655-42-355    -2   53   70   0.090   0.040        0
  4205  1655-48-364    -2   53   70   0.090   0.040        0
  4206  1651-42-362     2   53   69   0.090  -0.390        0
  4207  1651-48-355     2   53   69   0.090  -0.390        0
  4208  1657-60-349    -2   53   69   0.050  -0.290        0
  4209  1657-66-56     -2   53   69   0.050  -0.290        0
  4210  1657-71-32     -2   53   69   0.050  -0.290        0
  4211  1657-71-365    -2   53   69   0.050  -0.290        0
  4212  1614-12-96      1   54   70  -0.220  -0.280        0
  4213  1614-17-89      1   54   70  -0.220  -0.280        0
  4214  1614-22-80      1   54   70  -0.220  -0.280        0
  4215  1615-17-89      1   54   70  -0.220  -0.320        0
  4216  1615-22-80      1   54   70  -0.220  -0.320        0
  4217  1615-42-356     1   54   70  -0.220  -0.320        0
  4218  1615-48-355     1   54   70  -0.220  -0.320        0
  4219  1615-56-20      1   54   70  -0.220  -0.320        0
  4220  1615-61-31      1   54   70  -0.220  -0.320        0
  4221  1615-66-56      1   54   70  -0.220  -0.320        0
  4222  1615-71-33      1   54   70  -0.220  -0.320        0
  4223  1615-71-365     1   54   70  -0.220  -0.320        0
  4224  1611-42-356    -2   54   70  -0.150  -0.220        0
  4225  1611-48-355    -2   54   70  -0.150  -0.220        0
  4226  1611-56-20     -2   54   70  -0.150  -0.220        0
  4227  1611-61-31     -2   54   70  -0.150  -0.220        0
  4228  1611-66-56     -2   54   70  -0.150  -0.220        0
  4229  1611-71-33     -2   54   70  -0.150  -0.220        0
  4230  1611-71-365    -2   54   70  -0.150  -0.220        0
  4231  1708-42-357    -2   52   72   0.360   0.090        0
  4232  1708-48-341    -2   52   72   0.360   0.090        0
  4233  1693-17-87      1   52   72   0.470   0.090        0
  4234  1693-22-79      1   52   72   0.470   0.090        0
  4235  1693-42-356     1   52   72   0.470   0.090        0
  4236  1693-48-356     1   52   72   0.470   0.090        0
  4237  1687-42-356    -2   52   72   0.470   0.090        0
  4238  1687-48-356    -2   52   72   0.470   0.090        0
  4239  1687-56-27     -2   52   72   0.470   0.090        0
  4240  1687-61-26     -2   52   72   0.470   0.090        0
  4241  1687-66-56     -2   52   72   0.470   0.090        0
  4242  1687-71-33     -2   52   72   0.470   0.090        0
  4243  1687-71-365    -2   52   72   0.470   0.090        0
  4244  1681-17-87      1   53   71  -0.410   0.080        0
  4245  1681-22-79      1   53   71  -0.410   0.080        0
  4246  1681-26-294     1   53   71  -0.410   0.080        0
  4247  1681-48-356     1   53   71  -0.410   0.080        0
  4248  1681-66-56      1   53   71  -0.410   0.080        0
  4249  1681-71-33      1   53   71  -0.410   0.080        0
  4250  1681-71-365     1   53   71  -0.410   0.080        0
  4251  1688-42-356    -2   53   71  -0.410   0.080        0
  4252  1688-48-356    -2   53   71  -0.410   0.080        0
  4253  1688-55-364    -2   53   71  -0.410   0.080        0
  4254  1688-61-21     -2   53   71  -0.410   0.080        0
  4255  1688-66-56     -2   53   71  -0.410   0.080        0
  4256  1688-71-33     -2   53   71  -0.410   0.080        0
  4257  1688-71-365    -2   53   71  -0.410   0.080        0
  4258  1596-12-96      1   54   71  -0.340  -0.210        0
  4259  1596-22-81      1   54   71  -0.340  -0.210        0
  4260  1596-42-356     1   54   71  -0.340  -0.210        0
  4261  1621-42-356    -2   54   71  -0.340  -0.180        0
  4262  1621-48-356    -2   54   71  -0.340  -0.180        0
  4263  1621-56-6      -2   54   71  -0.340  -0.180        0
  4264  1621-61-42     -2   54   71  -0.340  -0.180        0
  4265  1621-65-355    -2   54   71  -0.340  -0.180        0
  4266  1621-71-33     -2   54   71  -0.340  -0.180        0
  4267  1621-71-365    -2   54   71  -0.340  -0.180        0
  4268  1605-11-45      1   54   71   0.040  -0.280        0
  4269  1630-17-87      1   54   72  -0.490   0.060        0
  4270  1630-22-79      1   54   72  -0.490   0.060        0
  4271  1630-42-355     1   54   72  -0.490   0.060        0
  4272  1630-48-356     1   54   72  -0.490   0.060        0
  4273  1630-66-59      1   54   72  -0.490   0.060        0
  4274  1630-71-33      1   54   72  -0.490   0.060        0
  4275  1630-71-365     1   54   72  -0.490   0.060        0
  4276  1629-42-355     2   53   72   0.470   0.060        0
  4277  1629-48-356     2   53   72   0.470   0.060        0
  4278  1629-56-9       2   53   72   0.470   0.060        0
  4279  1629-61-21      2   53   72   0.470   0.060        0
  4280  1629-66-59      2   53   72   0.470   0.060        0
  4281  1629-71-33      2   53   72   0.470   0.060        0
  4282  1629-71-365     2   53   72   0.470   0.060        0
  4283  1683-22-79     -2   53   74  -0.420   0.170        0
  4284  1683-26-349    -2   53   74  -0.420   0.170        0
  4285  1683-42-355    -2   53   74  -0.420   0.170        0
  4286  1683-48-355     2   53   74  -0.420   0.170        0
  4287  1683-56-27      2   53   74  -0.420   0.170        0
  4288  1683-60-349     2   53   74  -0.420   0.170        0
  4289  1683-66-54     -2   53   74  -0.420   0.170        0
  4290  1679-42-355     2   53   74  -0.420   0.170        0
  4291  1679-48-355     2   53   74  -0.420   0.170        0
  4292  1679-56-27      2   53   74  -0.420   0.170        0
  4293  1679-61-11      2   53   74  -0.420   0.170        0
  4294  1680-66-54      2   53   74  -0.420   0.170        0
  4295  1654-42-355     2   53   73  -0.030   0.130        0
  4296  1654-48-355     2   53   73  -0.030   0.130        0
  4297  1654-56-27      2   53   73  -0.030   0.130        0
  4298  1654-61-14      2   53   73  -0.030   0.130        0
  4299  1654-66-54      2   53   73  -0.030   0.130        0
  4300  1654-71-64      2   53   73  -0.030   0.130        0
  4301  1654-71-365     2   53   73  -0.030   0.130        0
  4302  1660-42-355     2   53   73  -0.030   0.130        0
  4303  1660-48-355     2   53   73  -0.030   0.130        0
  4304  1660-56-27      2   53   73  -0.030   0.130        0
  4305  1660-60-349     2   53   73  -0.030   0.130        0
  4306  1660-66-54      2   53   73  -0.030   0.130        0
  4307  1660-71-64      2   53   73  -0.030   0.130        0
  4308  1660-71-365     2   53   73  -0.030   0.130        0
  4309  1554-22-81     -2   55   74   0.150   0.080        0
  4310  1554-27-15     -2   55   74   0.150   0.080        0
  4311  1554-32-60     -2   55   74   0.150   0.080        0
  4312  1554-56-26      2   55   74   0.150   0.080        0
  4313  1554-61-12      2   55   74   0.150   0.080        0
  4314  1554-66-59      2   55   74   0.150   0.080        0
  4315  1554-71-54      2   55   74   0.150   0.080        0
  4316  1554-71-365     2   55   74   0.150   0.080        0
  4317  1504-22-60     -2   56   74   0.100   0.110        0
  4318  1548-7-158      2   55   72   0.040  -0.360        0
  4319  1548-11-82      2   55   72   0.040  -0.360        0
  4320  1548-17-87      2   55   72   0.040  -0.360        0
  4321  1548-22-81      2   55   72   0.040  -0.360        0
  4322  1548-26-278     2   55   72   0.040  -0.360        0
  4323  1550-48-365    -2   55   72   0.070  -0.360        0
  4324  1550-56-6      -2   55   72   0.070  -0.360        0
  4325  1550-61-27     -2   55   72   0.070  -0.360        0
  4326  1550-66-28     -2   55   72   0.070  -0.360        0
  4327  1550-71-13     -2   55   72   0.070  -0.360        0
  4328  1550-71-365    -2   55   72   0.070  -0.360        0
  4329  1559-66-46      1   55   71  -0.120  -0.310        0
  4330  1559-71-365     1   55   71  -0.120  -0.310        0
  4331  1569-32-60      1   55   71  -0.270   0.340        0
  4332  1569-37-89      1   55   71  -0.270   0.340        0
  4333  1569-42-356     1   55   71  -0.270   0.340        0
  4334  1569-48-355     1   55   71  -0.270   0.340        0
  4335  1569-56-26      1   55   71  -0.270   0.340        0
  4336  1569-61-24      1   55   71  -0.270   0.340        0
  4337  1569-66-28      1   55   71  -0.270   0.340        0
  4338  1569-71-365     1   55   71  -0.270   0.340        0
  4339  1540-17-86      1   55   72   0.190  -0.490        0
  4340  1540-22-81      1   55   72   0.190  -0.490        0
  4341  1540-26-279     1   55   72   0.190  -0.490        0
  4342  1540-42-355     1   55   72   0.190  -0.490        0
  4343  1540-48-355     1   55   72   0.190  -0.490        0
  4344  1540-56-26      1   55   72   0.190  -0.490        0
  4345  1540-60-350     1   55   72   0.190  -0.490        0
  4346  1540-66-28      1   55   72   0.190  -0.490        0
  4347  1540-71-365     1   55   72   0.190  -0.490        0
  4348  1526-17-87      2   56   71  -0.350   0.250        0
  4349  1526-22-81      2   56   71  -0.350   0.250        0
  4350  1526-26-349     2   56   71  -0.350   0.250        0
  4351  1526-32-60      2   56   71  -0.350   0.250        0
  4352  1526-42-356     2   56   71  -0.350   0.250        0
  4353  1526-48-355     2   56   71  -0.350   0.250        0
  4354  1526-56-26      2   56   71  -0.350   0.250        0
  4355  1526-60-350     2   56   71  -0.350   0.250        0
  4356  1526-65-355     2   56   71  -0.350   0.250        0
  4357  1526-71-362     2   56   71  -0.350   0.250        0
  4358  1518-42-357    -2   56   71  -0.200   0.250        0
  4359  1517-71-53      2   56   73  -0.120  -0.480        0
  4360  1517-71-365     2   56   73  -0.120  -0.480        0
  4361  1564-56-26      2   55   70  -0.150   0.070        0
  4362  1564-71-365     2   55   70  -0.150   0.070        0
  4363  1552-12-59      1   55   69  -0.080   0.070        0
  4364  1552-17-85      1   55   69  -0.080   0.070        0
  4365  1552-22-80      1   55   69  -0.080   0.070        0
  4366  1557-42-356     1   55   69  -0.080   0.030        0
  4367  1557-48-355     1   55   69  -0.080   0.030        0
  4368  1557-56-20      1   55   69  -0.080   0.030        0
  4369  1557-71-13      1   55   69  -0.080   0.030        0
  4370  1557-71-365     1   55   69  -0.080   0.030        0
  4371  1570-2-98       1   55   69  -0.310  -0.190        0
  4372  1631-12-96      1   56   69  -0.200   0.200        0
  4373  1631-17-87      1   56   69  -0.200   0.200        0
  4374  1631-22-80      1   56   69  -0.200   0.200        0
  4375  1631-26-279     1   56   69  -0.200   0.200        0
  4376  1631-42-355     1   56   69  -0.200   0.200        0
  4377  1631-48-355     1   56   69  -0.200   0.200        0
  4378  1631-56-26      1   56   69  -0.200   0.200        0
  4379  1631-66-32      1   56   69  -0.200   0.200        0
  4380  1631-71-33      1   56   69  -0.200   0.200        0
  4381  1631-71-365     1   56   69  -0.200   0.200        0
  4382  1519-42-355    -2   56   69  -0.200   0.160        0
  4383  1519-48-355    -2   56   69  -0.200   0.160        0
  4384  1519-56-20     -2   56   69  -0.200   0.160        0
  4385  1519-61-18     -2   56   69  -0.200   0.160        0
  4386  1519-66-32     -2   56   69  -0.200   0.160        0
  4387  1519-71-33     -2   56   69  -0.200   0.160        0
  4388  1519-71-365    -2   56   69  -0.200   0.160        0
  4389  1542-56-20      2   55   70   0.230   0.140        0
  4390  1542-60-350     2   55   70   0.230   0.140        0
  4391  1542-66-54      2   55   70   0.230   0.140        0
  4392  1542-71-13      2   55   70   0.230   0.140        0
  4393  1542-71-365     2   55   70   0.230   0.140        0
  4394  1520-17-87      1   56   70  -0.230  -0.050        0
  4395  1520-22-80      1   56   70  -0.230  -0.050        0
  4396  1520-32-60      1   56   70  -0.230  -0.050        0
  4397  1520-42-356     1   56   70  -0.230  -0.050        0
  4398  1597-56-27      1   54   69   0.240  -0.490        0
  4399  1597-66-26      1   54   69   0.240  -0.490        0
  4400  1597-71-28      1   54   69   0.240  -0.490        0
  4401  1597-71-365     1   54   69   0.240  -0.490        0
  4402  1581-11-256     1   55   68  -0.500   0.450        0
  4403  1583-56-27      1   54   68   0.430  -0.400        0
  4404  1583-66-26      1   54   68   0.430  -0.400        0
  4405  1583-71-28      1   54   68   0.430  -0.400        0
  4406  1583-71-29      1   54   68   0.430  -0.400        0
  4407  1583-71-365     1   54   68   0.430  -0.400        0
  4408  1583-71-365     1   54   68   0.430  -0.400        0
  4409  1565-71-28      2   55   69  -0.190  -0.490        0
  4410  1565-71-365     2   55   69  -0.190  -0.490        0
  4411  1595-11-257     2   54   67   0.310   0.440        0
  4412  1533-8-65       1   55   67   0.350  -0.310        0
  4413  1533-12-96      1   55   67   0.350  -0.310        0
  4414  1533-17-82      1   55   67   0.350  -0.310        0
  4415  1533-22-80      1   55   67   0.350  -0.310        0
  4416  1533-27-15      1   55   67   0.350  -0.310        0
  4417  1533-42-363     1   55   67   0.350  -0.310        0
  4418  1537-42-363     2   55   67   0.310  -0.310        0
  4419  1537-48-357     2   55   67   0.310  -0.310        0
  4420  1541-66-55      1   55   67   0.270  -0.410        0
  4421  1541-71-76      1   55   67   0.270  -0.410        0
  4422  1541-71-365     1   55   67   0.270  -0.410        0
  4423  1510-42-357     2   56   67  -0.040  -0.370        0
  4424  1510-48-337     2   56   67  -0.040  -0.370        0
  4425  1510-56-18      2   56   67  -0.040  -0.370        0
  4426  1510-60-333     2   56   67  -0.040  -0.370        0
  4427  1510-65-299     2   56   67  -0.040  -0.370        0
  4428  1510-71-11      2   56   67  -0.040  -0.370        0
  4429  1510-71-365     2   56   67  -0.040  -0.370        0
  4430  1511-31-351     2   56   67  -0.040  -0.370        0
  4431  1511-37-27      2   56   67  -0.040  -0.370        0
  4432  1511-42-357     2   56   67  -0.040  -0.370        0
  4433  1511-48-337     2   56   67  -0.040  -0.370        0
  4434  1511-56-18      2   56   67  -0.040  -0.370        0
  4435  1511-60-333     2   56   67  -0.040  -0.370        0
  4436  1511-65-299     2   56   67  -0.040  -0.370        0
  4437  1511-71-12      2   56   67  -0.040  -0.370        0
  4438  1511-71-365     2   56   67  -0.040  -0.370        0
  4439  1512-31-351     2   56   67  -0.040  -0.370        0
  4440  1512-42-357     2   56   67  -0.040  -0.370        0
  4441  1512-48-337     2   56   67  -0.040  -0.370        0
  4442  1512-56-18      2   56   67  -0.040  -0.370        0
  4443  1513-31-351     2   56   67  -0.040  -0.370        0
  4444  1513-42-357     2   56   67  -0.040  -0.370        0
  4445  1513-48-337     2   56   67  -0.040  -0.370        0
  4446  1513-56-18      2   56   67  -0.040  -0.370        0
  4447  1513-60-333     2   56   67  -0.040  -0.370        0
  4448  1513-65-299     2   56   67  -0.040  -0.370        0
  4449  1513-71-11      2   56   67  -0.040  -0.370        0
  4450  1513-71-365     2   56   67  -0.040  -0.370        0
  4451  1505-66-26      1   56   68   0.110   0.450        0
  4452  1505-71-53      1   56   68   0.110   0.450        0
  4453  1505-71-365     1   56   68   0.110   0.450        0
  4454  1546-8-65       2   55   66   0.120   0.040        0
  4455  1546-10-31      2   55   66   0.120   0.040        0
  4456  1546-17-82      2   55   66   0.120   0.040        0
  4457  1546-22-81      2   55   66   0.120   0.040        0
  4458  1551-42-363    -2   55   66   0.120  -0.250        0
  4459  1551-48-357    -2   55   66   0.120  -0.250        0
  4460  1551-56-13     -2   55   66   0.120  -0.250        0
  4461  1551-61-31     -2   55   66   0.120  -0.250        0
  4462  1551-66-19     -2   55   66   0.120  -0.250        0
  4463  1551-71-32     -2   55   66   0.120  -0.250        0
  4464  1551-71-365    -2   55   66   0.120  -0.250        0
  4465  1525-10-154     2   56   65  -0.380   0.330        0
  4466  1525-22-83      2   56   65  -0.380   0.330        0
  4467  1525-32-60      2   56   65  -0.380   0.330        0
  4468  1525-42-363     2   56   65  -0.380   0.330        0
  4469  1525-56-25      2   56   65  -0.380   0.330        0
  4470  1525-60-351     2   56   65  -0.380   0.330        0
  4471  1525-66-1       2   56   65  -0.380   0.330        0
  4472  1525-71-32      2   56   65  -0.380   0.330        0
  4473  1525-71-365     2   56   65  -0.380   0.330        0
  4474  1813-17-82      2   55   66   0.460   0.040        0
  4475  1813-22-82      2   55   66   0.460   0.040        0
  4476  1813-26-294     2   55   66   0.460   0.040        0
  4477  1813-42-363     2   55   66   0.460   0.040        0
  4478  1813-48-357     2   55   66   0.460   0.040        0
  4479  1813-56-25      2   55   66   0.460   0.040        0
  4480  1813-60-351     2   55   66   0.460   0.040        0
  4481  1813-66-19      2   55   66   0.460   0.040        0
  4482  1813-71-32      2   55   66   0.460   0.040        0
  4483  1813-71-365     2   55   66   0.460   0.040        0
  4484  1538-10-154    -2   55   66   0.310  -0.280        0
  4485  1538-17-86     -2   55   66   0.310  -0.280        0
  4486  1538-22-82     -2   55   66   0.310  -0.280        0
  4487  1538-42-363    -2   55   66   0.310  -0.280        0
  4488  1567-12-59     -2   55   64  -0.230   0.190        0
  4489  1567-17-85     -2   55   64  -0.230   0.190        0
  4490  1567-22-53     -2   55   64  -0.230   0.190        0
  4491  1567-27-15     -2   55   64  -0.230   0.190        0
  4492  1567-32-65     -2   55   64  -0.230   0.190        0
  4493  1578-42-362     2   55   64  -0.420   0.190        0
  4494  1579-34-182    -2   55   63  -0.420   0.240        0
  4495  1466-12-96      2   57   63   0.070   0.370        0
  4496  1466-17-89      2   57   63   0.070   0.370        0
  4497  1466-32-60      2   57   63   0.070   0.370        0
  4498  1466-37-89      2   57   63   0.070   0.370        0
  4499  1466-42-363     2   57   63   0.070   0.370        0
  4500  1466-48-357     2   57   63   0.070   0.370        0
  4501  1466-56-25      2   57   63   0.070   0.370        0
  4502  1466-71-365     2   57   63   0.070   0.370        0
  4503  1467-17-89      2   57   63   0.110   0.410        0
  4504  1467-22-60      2   57   63   0.110   0.410        0
  4505  1467-48-357     2   57   63   0.110   0.410        0
  4506  1467-56-25      2   57   63   0.110   0.410        0
  4507  1467-60-351     2   57   63   0.110   0.410        0
  4508  1467-65-355     2   57   63   0.110   0.410        0
  4509  1467-71-52      2   57   63   0.110   0.410        0
  4510  1467-71-365     2   57   63   0.110   0.410        0
  4511  1470-17-82      2   57   66  -0.120  -0.020        0
  4512  1470-22-82      2   57   66  -0.120  -0.020        0
  4513  1470-42-362     2   57   66  -0.120  -0.020        0
  4514  1470-48-357     2   57   66  -0.120  -0.020        0
  4515  1470-56-18      2   57   66  -0.120  -0.020        0
  4516  1470-60-308     2   57   66  -0.120  -0.020        0
  4517  1470-71-365     2   57   66  -0.120  -0.020        0
  4518  1500-27-60     -2   56   65   0.270   0.130        0
  4519  1500-42-362    -2   56   65   0.270   0.130        0
  4520  1500-48-357    -2   56   65   0.270   0.130        0
  4521  1500-56-25     -2   56   65   0.270   0.130        0
  4522  1500-60-351    -2   56   65   0.270   0.130        0
  4523  1459-11-68      2   57   65   0.180  -0.190        0
  4524  1459-17-82      2   57   65   0.180  -0.190        0
  4525  1459-22-60      2   57   65   0.180  -0.190        0
  4526  1459-26-293     2   57   65   0.180  -0.190        0
  4527  1459-42-363     2   57   65   0.180  -0.190        0
  4528  1459-48-357     2   57   65   0.180  -0.190        0
  4529  1459-56-25      2   57   65   0.180  -0.190        0
  4530  1459-60-351     2   57   65   0.180  -0.190        0
  4531  1459-66-12      2   57   65   0.180  -0.190        0
  4532  1459-71-365     2   57   65   0.180  -0.190        0
  4533  1455-12-96      1   57   66   0.450  -0.020        0
  4534  1455-17-82      1   57   66   0.450  -0.020        0
  4535  1443-12-96      2   58   66  -0.430   0.010        0
  4536  1443-17-82      2   58   66  -0.430   0.010        0
  4537  1443-32-60      2   58   66  -0.430   0.010        0
  4538  1443-38-60      2   58   66  -0.430   0.010        0
  4539  1443-42-364     2   58   66  -0.430   0.010        0
  4540  1443-48-341     2   58   66  -0.430   0.010        0
  4541  1486-56-56      1   57   68  -0.390   0.090        0
  4542  1486-71-365     1   57   68  -0.390   0.090        0
  4543  1485-71-365     1   57   68  -0.390   0.090        0
  4544  1475-11-305     1   57   67  -0.200  -0.270        0
  4545  1465-17-82      1   57   67   0.180  -0.210        0
  4546  1465-22-82      1   57   67   0.180  -0.210        0
  4547  1465-42-356     1   57   67   0.180  -0.210        0
  4548  1465-48-355     1   57   67   0.180  -0.210        0
  4549  1465-56-25      1   57   67   0.180  -0.210        0
  4550  1465-60-351     1   57   67   0.180  -0.210        0
  4551  1465-66-1       1   57   67   0.180  -0.210        0
  4552  1465-71-365     1   57   67   0.180  -0.210        0
  4553  1440-17-82     -2   57   68   0.260  -0.430        0
  4554  1440-22-80     -2   57   68   0.260  -0.430        0
  4555  1440-32-60     -2   57   68   0.260  -0.430        0
  4556  1440-37-90     -2   57   68   0.260  -0.430        0
  4557  1440-48-355    -2   57   68   0.260  -0.430        0
  4558  1441-11-283    -2   58   68  -0.360   0.450        0
  4559  1474-17-87      1   57   70  -0.200   0.140        0
  4560  1474-22-80      1   57   70  -0.200   0.140        0
  4561  1474-61-31      1   57   70  -0.200   0.140        0
  4562  1474-71-68      1   57   70  -0.200   0.140        0
  4563  1474-71-365     1   57   70  -0.200   0.140        0
  4564  1478-48-355    -2   57   70  -0.240  -0.050        0
  4565  1478-56-26     -2   57   70  -0.240  -0.050        0
  4566  1478-60-350    -2   57   70  -0.240  -0.050        0
  4567  1478-65-355    -2   57   70  -0.240  -0.050        0
  4568  1478-71-68     -2   57   70  -0.240  -0.050        0
  4569  1478-71-365    -2   57   70  -0.240  -0.050        0
  4570  1453-17-85      1   57   69   0.370  -0.090        0
  4571  1453-22-80      1   57   69   0.370  -0.090        0
  4572  1453-42-356     1   57   69   0.370  -0.090        0
  4573  1453-48-355     1   57   69   0.370  -0.090        0
  4574  1453-66-49      1   57   69   0.370  -0.090        0
  4575  1453-71-68      1   57   69   0.370  -0.090        0
  4576  1453-71-365     1   57   69   0.370  -0.090        0
  4577  1454-42-356    -2   57   69   0.330  -0.090        0
  4578  1454-48-355    -2   57   69   0.330  -0.090        0
  4579  1454-55-362    -2   57   69   0.330  -0.090        0
  4580  1454-61-31     -2   57   69   0.330  -0.090        0
  4581  1454-66-49     -2   57   69   0.330  -0.090        0
  4582  1454-71-68     -2   57   69   0.330  -0.090        0
  4583  1454-71-365    -2   57   69   0.330  -0.090        0
  4584  1447-66-49      1   57   69   0.410   0.100        0
  4585  1447-71-68      1   57   69   0.410   0.100        0
  4586  1447-71-365     1   57   69   0.410   0.100        0
  4587  1444-42-356    -2   58   70  -0.470  -0.310        0
  4588  1444-48-355    -2   58   70  -0.470  -0.310        0
  4589  1444-55-362    -2   58   70  -0.470  -0.310        0
  4590  1444-61-6      -2   58   70  -0.470  -0.310        0
  4591  1444-66-49     -2   58   70  -0.470  -0.310        0
  4592  1444-71-68     -2   58   70  -0.470  -0.310        0
  4593  1444-71-365    -2   58   70  -0.470  -0.310        0
  4594  1499-11-360    -2   56   72   0.300   0.160        0
  4595  1499-17-85     -2   56   72   0.300   0.160        0
  4596  1499-22-81     -2   56   72   0.300   0.160        0
  4597  1499-48-355    -2   56   72   0.300   0.160        0
  4598  1499-56-20     -2   56   72   0.300   0.160        0
  4599  1499-60-350    -2   56   72   0.300   0.160        0
  4600  1499-66-14     -2   56   72   0.300   0.160        0
  4601  1499-71-64     -2   56   72   0.300   0.160        0
  4602  1499-71-365    -2   56   72   0.300   0.160        0
  4603  1490-66-45      1   56   72   0.450   0.320        0
  4604  1490-71-64      1   56   72   0.450   0.320        0
  4605  1490-71-365     1   56   72   0.450   0.320        0
  4606  1436-71-64      2   57   71   0.220   0.120        0
  4607  1436-71-365     2   57   71   0.220   0.120        0
  4608  1488-17-87      2   57   74  -0.440   0.080        0
  4609  1488-22-81      2   57   74  -0.440   0.080        0
  4610  1488-48-350     2   57   74  -0.440   0.080        0
  4611  1488-56-20      2   57   74  -0.440   0.080        0
  4612  1502-17-85     -2   56   74   0.260  -0.350        0
  4613  1502-22-81     -2   56   74   0.260  -0.350        0
  4614  1502-48-365     2   56   74   0.260  -0.350        0
  4615  1502-56-20      2   56   74   0.260  -0.350        0
  4616  1502-60-350     2   56   74   0.260  -0.350        0
  4617  1502-66-46     -2   56   74   0.260  -0.350        0
  4618  1502-71-54     -2   56   74   0.260  -0.350        0
  4619  1502-71-365    -2   56   74   0.260  -0.350        0
  4620  1477-8-69       2   57   73  -0.240   0.100        0
  4621  1477-12-96      2   57   73  -0.240   0.100        0
  4622  1477-17-86      2   57   73  -0.240   0.100        0
  4623  1477-22-81      2   57   73  -0.240   0.100        0
  4624  1477-32-60      2   57   73  -0.240   0.100        0
  4625  1458-17-85      2   57   74   0.250  -0.410        0
  4626  1458-22-81      2   57   74   0.250  -0.410        0
  4627  1458-42-355     2   57   74   0.250  -0.410        0
  4628  1458-48-350     2   57   74   0.250  -0.410        0
  4629  1458-56-20      2   57   74   0.250  -0.410        0
  4630  1458-60-350     2   57   74   0.250  -0.410        0
  4631  1458-71-64      2   57   74   0.250  -0.410        0
  4632  1458-71-365     2   57   74   0.250  -0.410        0
  4633  1460-66-1       2   57   74   0.250  -0.440        0
  4634  1460-71-64      2   57   74   0.250  -0.440        0
  4635  1460-71-365     2   57   74   0.250  -0.440        0
  4636  1429-17-85     -2   58   74   0.100  -0.440        0
  4637  1429-22-81     -2   58   74   0.100  -0.440        0
  4638  1429-42-355    -2   58   74   0.100  -0.440        0
  4639  1429-48-350    -2   58   74   0.100  -0.440        0
  4640  1429-56-20     -2   58   74   0.100  -0.440        0
  4641  1429-60-350    -2   58   74   0.100  -0.440        0
  4642  1429-66-53     -2   58   74   0.100  -0.440        0
  4643  1429-71-13     -2   58   74   0.100  -0.440        0
  4644  1429-71-365    -2   58   74   0.100  -0.440        0
  4645  1431-17-85      2   58   75   0.130  -0.370        0
  4646  1431-22-82      2   58   75   0.130  -0.370        0
  4647  1431-27-63      2   58   75   0.130  -0.370        0
  4648  1431-32-60      2   58   75   0.130  -0.370        0
  4649  1431-42-355     2   58   75   0.130  -0.370        0
  4650  1431-48-350     2   58   75   0.130  -0.370        0
  4651  1431-56-20      2   58   75   0.130  -0.370        0
  4652  1431-60-350     2   58   75   0.130  -0.370        0
  4653  1431-71-13      2   58   75   0.130  -0.370        0
  4654  1431-71-365     2   58   75   0.130  -0.370        0
  4655  1392-16-363    -2   59   73   0.320  -0.060        0
  4656  1397-22-80     -2   59   68   0.290   0.090        0
  4657  1397-42-355    -2   59   68   0.290   0.090        0
  4658  1397-48-355    -2   59   68   0.290   0.090        0
  4659  1397-55-361    -2   59   68   0.290   0.090        0
  4660  1397-61-14     -2   59   68   0.290   0.090        0
  4661  1397-66-12     -2   59   68   0.290   0.090        0
  4662  1397-71-68     -2   59   68   0.290   0.090        0
  4663  1397-71-365    -2   59   68   0.290   0.090        0
  4664  1426-12-95     -2   58   66   0.290   0.470        0
  4665  1426-17-82     -2   58   66   0.290   0.470        0
  4666  1426-22-80     -2   58   66   0.290   0.470        0
  4667  1426-26-288    -2   58   66   0.290   0.470        0
  4668  1426-42-356    -2   58   66   0.290   0.470        0
  4669  1426-48-355    -2   58   66   0.290   0.470        0
  4670  1426-55-350    -2   58   66   0.290   0.470        0
  4671  1426-61-13     -2   58   66   0.290   0.470        0
  4672  1426-66-12     -2   58   66   0.290   0.470        0
  4673  1426-71-54     -2   58   66   0.290   0.470        0
  4674  1426-71-365    -2   58   66   0.290   0.470        0
  4675  1411-56-25      1   59   66  -0.250  -0.220        0
  4676  1411-61-42      1   59   66  -0.250  -0.220        0
  4677  1411-66-12      1   59   66  -0.250  -0.220        0
  4678  1411-71-54      1   59   66  -0.250  -0.220        0
  4679  1411-71-365     1   59   66  -0.250  -0.220        0
  4680  1409-61-42     -2   59   66  -0.130  -0.180        0
  4681  1409-66-12     -2   59   66  -0.130  -0.180        0
  4682  1409-71-54     -2   59   66  -0.130  -0.180        0
  4683  1409-71-365    -2   59   66  -0.130  -0.180        0
  4684  1390-71-68     -2   60   65  -0.440  -0.360        0
  4685  1390-71-362    -2   60   65  -0.440  -0.360        0
  4686  1416-71-1      -2   59   63  -0.320  -0.110        0
  4687  1372-66-5       1   60   65   0.210   0.130        0
  4688  1372-71-68      1   60   65   0.210   0.130        0
  4689  1372-71-362     1   60   65   0.210   0.130        0
  4690  1312-12-265     1   61   66   0.320   0.440        0
  4691  1332-71-13      2   61   68  -0.030  -0.260        0
  4692  1332-71-362     2   61   68  -0.030  -0.260        0
  4693  1359-32-69     -2   60   73   0.200  -0.410        0
  4694  1359-37-95     -2   60   73   0.200  -0.410        0
  4695  1359-42-356    -2   60   73   0.200  -0.410        0
  4696  1359-48-334    -2   60   73   0.200  -0.410        0
  4697  1359-56-19     -2   60   73   0.200  -0.410        0
  4698  1359-60-321    -2   60   73   0.200  -0.410        0
  4699  1359-65-298    -2   60   73   0.200  -0.410        0
  4700  1359-71-14     -2   60   73   0.200  -0.410        0
  4701  1359-71-365    -2   60   73   0.200  -0.410        0
  4702  1333-7-28      -2   61   73  -0.230  -0.450        0
  4703  1333-12-95     -2   61   73  -0.230  -0.450        0
  4704  1333-17-87     -2   61   73  -0.230  -0.450        0
  4705  1333-32-69     -2   61   73  -0.230  -0.450        0
  4706  1333-56-19      2   61   73  -0.230  -0.450        0
  4707  1333-61-60      2   61   73  -0.230  -0.450        0
  4708  1333-66-25      2   61   73  -0.230  -0.450        0
  4709  1355-32-69      2   61   75  -0.500  -0.490        0
  4710  1355-37-95      2   61   75  -0.500  -0.490        0
  4711  1355-42-356     2   61   75  -0.500  -0.490        0
  4712  1355-48-344     2   61   75  -0.500  -0.490        0
  4713  1355-56-19      2   61   75  -0.500  -0.490        0
  4714  1355-61-60      2   61   75  -0.500  -0.490        0
  4715  1355-66-25      2   61   75  -0.500  -0.490        0
  4716  1355-71-40      2   61   75  -0.500  -0.490        0
  4717  1295-32-69      1   62   73  -0.150  -0.020        0
  4718  1295-37-95      1   62   73  -0.150  -0.020        0
  4719  1295-42-355     1   62   73  -0.150  -0.020        0
  4720  1295-56-19      1   62   73  -0.150  -0.020        0
  4721  1295-61-60      1   62   73  -0.150  -0.020        0
  4722  1289-48-344     2   62   74  -0.230   0.280        0
  4723  1289-56-20      2   62   74  -0.230   0.280        0
  4724  1289-61-60      2   62   74  -0.230   0.280        0
  4725  1289-66-25      2   62   74  -0.230   0.280        0
  4726  1289-71-40      2   62   74  -0.230   0.280        0
  4727  1856-33-79      2   51   86   0.150   0.140        0
  4728  1866-42-356     2   51   87   0.150  -0.440        0
  4729  1866-48-348     2   51   87   0.150  -0.440        0
  4730  1866-55-347     2   51   87   0.150  -0.440        0
  4731  1866-60-356     2   51   87   0.150  -0.440        0
  4732  1866-66-5      -2   51   87   0.150  -0.440        0
  4733  1866-71-39     -2   51   87   0.150  -0.440        0
  4734  1866-71-41     -2   51   87   0.150  -0.440        0
  4735  1866-71-365    -2   51   87   0.150  -0.440        0
  4736  1859-55-347     2   51   87   0.110  -0.440        0
  4737  1859-66-33     -2   51   87   0.110  -0.440        0
  4738  1860-42-356     2   51   87   0.110  -0.440        0
  4739  1860-48-348     2   51   87   0.110  -0.440        0
  4740  1860-56-5       2   51   87   0.110  -0.440        0
  4741  1860-66-5       2   51   87   0.110  -0.440        0
  4742  1860-71-365     2   51   87   0.110  -0.440        0
  4743  1867-66-5       2   51   87   0.110  -0.470        0
  4744  1867-71-365     2   51   87   0.110  -0.470        0
  4745  1855-66-5       2   51   87   0.150  -0.440        0
  4746  1855-71-365     2   51   87   0.150  -0.440        0
  4747  1876-42-362     2   51   85  -0.040   0.290        0
  4748  1876-48-338     2   51   85  -0.040   0.290        0
  4749  1876-56-16      2   51   85  -0.040   0.290        0
  4750  1750-56-16      2   52   85  -0.120   0.490        0
  4751  1750-61-53      2   52   85  -0.120   0.490        0
  4752  1750-66-27      2   52   85  -0.120   0.490        0
  4753  1730-56-16      2   52   86   0.110  -0.410        0
  4754  1730-61-53      2   52   86   0.110  -0.410        0
  4755  1730-66-31      2   52   86   0.110  -0.410        0
  4756  1835-22-32      2   51   86   0.380   0.460        0
  4757  1835-27-12      2   51   86   0.380   0.460        0
  4758  1831-1-365      2   51   87   0.410  -0.440        0
  4759  1801-22-32      2   52   86  -0.390   0.200        0
  4760  1801-27-12      2   52   86  -0.390   0.200        0
  4761  1739-56-16      2   52   86  -0.050  -0.410        0
  4762  1739-61-53      2   52   86  -0.050  -0.410        0
  4763  1739-66-27      2   52   86  -0.050  -0.410        0
  4764  1725-66-12      2   52   83   0.190   0.080        0
  4765  1725-71-365     2   52   83   0.190   0.080        0
  4766  1761-27-17      2   52   85  -0.200  -0.420        0
  4767  1761-32-60      2   52   85  -0.200  -0.420        0
  4768  1761-42-355     2   52   85  -0.200  -0.420        0
  4769  1761-48-350     2   52   85  -0.200  -0.420        0
  4770  1761-56-6       2   52   85  -0.200  -0.420        0
  4771  1761-66-1       2   52   85  -0.200  -0.420        0
  4772  1761-71-35      2   52   85  -0.200  -0.420        0
  4773  1761-71-365     2   52   85  -0.200  -0.420        0
  4774  1774-48-365    -2   52   85  -0.240  -0.460        0
  4775  1774-56-5      -2   52   85  -0.240  -0.460        0
  4776  1774-66-1      -2   52   85  -0.240  -0.460        0
  4777  1774-71-35     -2   52   85  -0.240  -0.460        0
  4778  1774-71-365    -2   52   85  -0.240  -0.460        0
  4779  1740-1-365      1   52   84   0.030   0.380        0
  4780  1740-16-356     1   52   84   0.030   0.380        0
  4781  1853-42-357    -2   51   82   0.190   0.490        0
  4782  1850-48-338     2   51   82   0.190   0.230        0
  4783  1850-56-16      2   51   82   0.190   0.230        0
  4784  1850-66-31      2   51   82   0.190   0.230        0
  4785  1850-71-40      2   51   82   0.190   0.230        0
  4786  1895-16-362     2   51   81  -0.380  -0.300        0
  4787  1895-22-32      2   51   81  -0.380  -0.300        0
  4788  1895-27-12      2   51   81  -0.380  -0.300        0
  4789  1737-43-32      2   52   81   0.080   0.260        0
  4790  1737-48-355     2   52   81   0.080   0.260        0
  4791  1737-56-5       2   52   81   0.080   0.260        0
  4792  1737-61-26      2   52   81   0.080   0.260        0
  4793  1737-66-28      2   52   81   0.080   0.260        0
  4794  1737-71-35      2   52   81   0.080   0.260        0
  4795  1737-71-365     2   52   81   0.080   0.260        0
  4796  1802-1-276      1   52   82  -0.380  -0.030        0
  4797  1802-4-104      1   52   82  -0.380  -0.030        0
  4798  1746-42-355     2   52   82   0.150   0.110        0
  4799  1746-48-355     2   52   82   0.150   0.110        0
  4800  1746-56-11      2   52   82   0.150   0.110        0
  4801  1746-61-33      2   52   82   0.150   0.110        0
  4802  1746-66-28      2   52   82   0.150   0.110        0
  4803  1746-71-33      2   52   82   0.150   0.110        0
  4804  1746-71-344     2   52   82   0.150   0.110        0
  4805  1940-42-355    -2   50   80   0.280  -0.400        0
  4806  1940-48-355    -2   50   80   0.280  -0.400        0
  4807  1940-56-5      -2   50   80   0.280  -0.400        0
  4808  1940-66-1      -2   50   80   0.280  -0.400        0
  4809  1940-71-35     -2   50   80   0.280  -0.400        0
  4810  1940-71-365    -2   50   80   0.280  -0.400        0
  4811  1925-48-355     2   50   79   0.200   0.470        0
  4812  1925-56-5       2   50   79   0.200   0.470        0
  4813  1925-61-26      2   50   79   0.200   0.470        0
  4814  1925-66-32      2   50   79   0.200   0.470        0
  4815  1925-71-35      2   50   79   0.200   0.470        0
  4816  1925-71-365     2   50   79   0.200   0.470        0
  4817  1733-2-93       1   52   79   0.120  -0.280        0
  4818  1732-12-114     2   52   79   0.080  -0.020        0
  4819  1732-16-362     2   52   79   0.080  -0.020        0
  4820  1732-27-90      2   52   79   0.080  -0.020        0
  4821  1732-32-60      2   52   79   0.080  -0.020        0
  4822  1732-42-357     2   52   79   0.080  -0.020        0
  4823  1732-48-341     2   52   79   0.080  -0.020        0
  4824  1732-56-16      2   52   79   0.080  -0.020        0
  4825  1809-48-355     2   52   80  -0.420   0.480        0
  4826  1809-55-346     2   52   80  -0.420   0.480        0
  4827  1809-60-364     2   52   80  -0.420   0.480        0
  4828  1809-66-28      2   52   80  -0.420   0.480        0
  4829  1809-71-39      2   52   80  -0.420   0.480        0
  4830  1809-71-365     2   52   80  -0.420   0.480        0
  4831  1731-56-5       2   52   81   0.040  -0.460        0
  4832  1731-60-351     2   52   81   0.040  -0.460        0
  4833  1731-65-364     2   52   81   0.040  -0.460        0
  4834  1731-71-35      2   52   81   0.040  -0.460        0
  4835  1731-71-365     2   52   81   0.040  -0.460        0
  4836  1915-56-13      2   50   78   0.360   0.100        0
  4837  1915-60-351     2   50   78   0.360   0.100        0
  4838  1915-66-32      2   50   78   0.360   0.100        0
  4839  1915-71-55      2   50   78   0.360   0.100        0
  4840  1915-71-365     2   50   78   0.360   0.100        0
  4841  1869-1-365      1   51   78   0.090  -0.320        0
  4842  1884-1-52       1   51   78  -0.140   0.460        0
  4843  1910-66-32      2   50   77   0.440  -0.360        0
  4844  1910-71-365     2   50   77   0.440  -0.360        0
  4845  1887-66-32      2   51   77  -0.180  -0.360        0
  4846  1887-71-365     2   51   77  -0.180  -0.360        0
  4847  1854-66-48      2   51   77   0.200  -0.160        0
  4848  1885-7-322      1   51   77  -0.140   0.160        0
  4849  1885-12-116     1   51   77  -0.140   0.160        0
  4850  1790-66-48      2   52   78  -0.340  -0.420        0
  4851  1836-66-48      2   51   77   0.390  -0.390        0
  4852  1783-66-48      2   52   77  -0.300  -0.160        0
  4853  1846-48-355     2   52   78  -0.380   0.430        0
  4854  1846-55-327     2   52   78  -0.380   0.430        0
  4855  1846-61-14      2   52   78  -0.380   0.430        0
  4856  1846-66-48      2   52   78  -0.380   0.430        0
  4857  1846-71-365     2   52   78  -0.380   0.430        0
  4858  1845-48-355     2   51   78   0.320  -0.120        0
  4859  1845-55-360     2   51   78   0.320  -0.120        0
  4860  1845-61-11      2   51   78   0.320  -0.120        0
  4861  1845-66-32      2   51   78   0.320  -0.120        0
  4862  1845-71-365     2   51   78   0.320  -0.120        0
  4863  1916-56-5      -2   50   76   0.320   0.250        0
  4864  1916-66-32     -2   50   76   0.320   0.250        0
  4865  1916-71-365    -2   50   76   0.320   0.250        0
  4866  1911-56-5       2   50   76   0.360   0.250        0
  4867  1911-66-32      2   50   76   0.360   0.250        0
  4868  1911-71-365     2   50   76   0.360   0.250        0
  4869  1897-12-114     2   51   77  -0.410  -0.460        0
  4870  1897-27-10      2   51   77  -0.410  -0.460        0
  4871  1893-66-32      2   51   76  -0.330   0.310        0
  4872  1893-71-365     2   51   76  -0.330   0.310        0
  4873  1917-48-355     2   50   75   0.360  -0.150        0
  4874  1917-66-32      2   50   75   0.360  -0.150        0
  4875  1917-71-344     2   50   75   0.360  -0.150        0
  4876  1672-66-45      2   53   76  -0.300  -0.300        0
  4877  1647-12-332     2   53   76   0.350  -0.400        0
  4878  1647-16-355     2   53   76   0.350  -0.400        0
  4879  1659-22-81     -2   53   76   0.120   0.090        0
  4880  1659-42-356    -2   53   76   0.120   0.090        0
  4881  1659-48-355     2   53   76   0.120   0.090        0
  4882  1659-56-6       2   53   76   0.120   0.090        0
  4883  1659-60-354     2   53   76   0.120   0.090        0
  4884  1659-66-45     -2   53   76   0.120   0.090        0
  4885  1659-71-365    -2   53   76   0.120   0.090        0
  4886  1682-48-355     2   52   75   0.430   0.080        0
  4887  1707-42-355     2   52   75   0.430   0.080        0
  4888  1707-48-355     2   52   75   0.430   0.080        0
  4889  1707-56-26      2   52   75   0.430   0.080        0
  4890  1707-60-354     2   52   75   0.430   0.080        0
  4891  1707-66-45      2   52   75   0.430   0.080        0
  4892  1707-71-365     2   52   75   0.430   0.080        0
  4893  1712-42-355     2   52   75   0.350  -0.080        0
  4894  1712-48-355     2   52   75   0.350  -0.080        0
  4895  1712-56-5       2   52   75   0.350  -0.080        0
  4896  1712-61-14      2   52   75   0.350  -0.080        0
  4897  1712-65-355     2   52   75   0.350  -0.080        0
  4898  1712-71-67      2   52   75   0.350  -0.080        0
  4899  1712-71-365     2   52   75   0.350  -0.080        0
  4900  1671-22-79     -2   53   75  -0.070   0.280        0
  4901  1671-42-355     2   53   75  -0.070   0.280        0
  4902  1671-48-355     2   53   75  -0.070   0.280        0
  4903  1671-56-20      2   53   75  -0.070   0.280        0
  4904  1627-22-82      2   54   76  -0.460  -0.100        0
  4905  1627-32-90      2   54   76  -0.460  -0.100        0
  4906  1627-37-90      2   54   76  -0.460  -0.100        0
  4907  1627-42-356     2   54   76  -0.460  -0.100        0
  4908  1627-48-350     2   54   76  -0.460  -0.100        0
  4909  1627-55-360     2   54   76  -0.460  -0.100        0
  4910  1627-61-12      2   54   76  -0.460  -0.100        0
  4911  1627-66-1       2   54   76  -0.460  -0.100        0
  4912  1627-71-53      2   54   76  -0.460  -0.100        0
  4913  1627-71-365     2   54   76  -0.460  -0.100        0
  4914  1607-1-276     -2   54   76  -0.120  -0.300        0
  4915  1607-6-269     -2   54   76  -0.120  -0.300        0
  4916  1607-11-269    -2   54   76  -0.120  -0.300        0
  4917  1598-66-45      2   54   76   0.150   0.030        0
  4918  1643-27-90     -2   53   78   0.190   0.370        0
  4919  1632-22-82      2   53   77   0.500   0.070        0
  4920  1632-27-15      2   53   77   0.500   0.070        0
  4921  1632-32-77      2   53   77   0.500   0.070        0
  4922  1632-42-356     2   53   77   0.500   0.070        0
  4923  1632-48-355     2   53   77   0.500   0.070        0
  4924  1632-56-6       2   53   77   0.500   0.070        0
  4925  1632-60-354     2   53   77   0.500   0.070        0
  4926  1632-66-48      2   53   77   0.500   0.070        0
  4927  1632-71-53      2   53   77   0.500   0.070        0
  4928  1632-71-365     2   53   77   0.500   0.070        0
  4929  1677-32-64      2   53   81  -0.080  -0.450        0
  4930  1677-42-355     2   53   81  -0.080  -0.450        0
  4931  1677-48-351     2   53   81  -0.080  -0.450        0
  4932  1677-56-5       2   53   81  -0.080  -0.450        0
  4933  1677-61-26      2   53   81  -0.080  -0.450        0
  4934  1677-66-39      2   53   81  -0.080  -0.450        0
  4935  1677-71-35      2   53   81  -0.080  -0.450        0
  4936  1677-71-365     2   53   81  -0.080  -0.450        0
  4937  1646-27-90      2   53   80   0.070  -0.430        0
  4938  1646-32-64      2   53   80   0.070  -0.430        0
  4939  1646-42-355     2   53   80   0.070  -0.430        0
  4940  1646-48-350     2   53   80   0.070  -0.430        0
  4941  1646-56-5       2   53   80   0.070  -0.430        0
  4942  1646-61-26      2   53   80   0.070  -0.430        0
  4943  1646-66-39      2   53   80   0.070  -0.430        0
  4944  1646-71-39      2   53   80   0.070  -0.430        0
  4945  1646-71-365     2   53   80   0.070  -0.430        0
  4946  1602-42-355     2   54   80  -0.010  -0.270        0
  4947  1602-48-350     2   54   80  -0.010  -0.270        0
  4948  1602-71-35      2   54   80  -0.010  -0.270        0
  4949  1602-71-365     2   54   80  -0.010  -0.270        0
  4950  1601-42-355    -2   54   80  -0.010  -0.230        0
  4951  1601-48-350    -2   54   80  -0.010  -0.230        0
  4952  1601-55-348    -2   54   80  -0.010  -0.230        0
  4953  1601-61-14     -2   54   80  -0.010  -0.230        0
  4954  1601-66-19     -2   54   80  -0.010  -0.230        0
  4955  1601-71-35     -2   54   80  -0.010  -0.230        0
  4956  1601-71-365     2   54   80  -0.010  -0.230        0
  4957  1674-10-253     2   53   82  -0.280   0.140        0
  4958  1676-42-355     2   53   82  -0.240   0.140        0
  4959  1676-48-350     2   53   82  -0.240   0.140        0
  4960  1676-55-349     2   53   82  -0.240   0.140        0
  4961  1676-61-27      2   53   82  -0.240   0.140        0
  4962  1676-66-19      2   53   82  -0.240   0.140        0
  4963  1676-71-35      2   53   82  -0.240   0.140        0
  4964  1676-71-365     2   53   82  -0.240   0.140        0
  4965  1645-32-77      2   53   81   0.190   0.420        0
  4966  1645-42-355     2   53   81   0.190   0.420        0
  4967  1645-55-360     2   53   81   0.190   0.420        0
  4968  1645-60-356     2   53   81   0.190   0.420        0
  4969  1645-66-1       2   53   81   0.190   0.420        0
  4970  1645-71-35      2   53   81   0.190   0.420        0
  4971  1645-71-365     2   53   81   0.190   0.420        0
  4972  1604-32-77      2   54   81  -0.010  -0.320        0
  4973  1604-42-355     2   54   81  -0.010  -0.320        0
  4974  1604-48-350     2   54   81  -0.010  -0.320        0
  4975  1604-55-360     2   54   81  -0.010  -0.320        0
  4976  1604-60-362     2   54   81  -0.010  -0.320        0
  4977  1604-71-48      2   54   81  -0.010  -0.320        0
  4978  1604-71-365     2   54   81  -0.010  -0.320        0
  4979  1640-55-360    -2   53   84   0.220   0.380        0
  4980  1640-60-356    -2   53   84   0.220   0.380        0
  4981  1640-66-19     -2   53   84   0.220   0.380        0
  4982  1640-71-22     -2   53   84   0.220   0.380        0
  4983  1640-71-365    -2   53   84   0.220   0.380        0
  4984  1720-66-5       2   52   86   0.260   0.270        0
  4985  1720-71-22      2   52   86   0.260   0.270        0
  4986  1720-71-365     2   52   86   0.260   0.270        0
  4987  1706-33-318     2   52   85   0.340   0.260        0
  4988  1669-7-32       2   53   85  -0.200  -0.230        0
  4989  1669-12-106     2   53   85  -0.200  -0.230        0
  4990  1669-32-68      2   53   85  -0.200  -0.230        0
  4991  1669-38-60      2   53   85  -0.200  -0.230        0
  4992  1669-42-354     2   53   85  -0.200  -0.230        0
  4993  1622-32-68      2   54   85  -0.400  -0.090        0
  4994  1622-38-60      2   54   85  -0.400  -0.090        0
  4995  1622-42-354     2   54   85  -0.400  -0.090        0
  4996  1622-48-341     2   54   85  -0.400  -0.090        0
  4997  1622-56-17      2   54   85  -0.400  -0.090        0
  4998  1622-61-54      2   54   85  -0.400  -0.090        0
  4999  1622-66-32      2   54   85  -0.400  -0.090        0
  5000  1556-61-27     -2   55   86  -0.100   0.050        0
  5001  1556-66-5      -2   55   86  -0.100   0.050        0
  5002  1556-71-22     -2   55   86  -0.100   0.050        0
  5003  1556-71-365    -2   55   86  -0.100   0.050        0
  5004  1553-7-336      2   55   84  -0.060  -0.230        0
  5005  1553-12-106     2   55   84  -0.060  -0.230        0
  5006  1553-42-354     2   55   84  -0.060  -0.230        0
  5007  1553-48-341     2   55   84  -0.060  -0.230        0
  5008  1568-33-234     2   55   84  -0.100  -0.260        0
  5009  1568-48-341     2   55   84  -0.100  -0.260        0
  5010  1594-71-22      2   54   83   0.290   0.090        0
  5011  1594-71-365     2   54   83   0.290   0.090        0
  5012  1563-32-68      2   55   83  -0.290  -0.170        0
  5013  1563-37-48      2   55   83  -0.290  -0.170        0
  5014  1563-42-355     2   55   83  -0.290  -0.170        0
  5015  1563-48-348     2   55   83  -0.290  -0.170        0
  5016  1563-56-6       2   55   83  -0.290  -0.170        0
  5017  1553-15-99      2   55   84  -0.060  -0.230        0
  5018  1522-42-355     2   55   84   0.480   0.160        0
  5019  1522-48-348     2   55   84   0.480   0.160        0
  5020  1527-55-354    -2   56   84  -0.490   0.190        0
  5021  1527-61-54     -2   56   84  -0.490   0.190        0
  5022  1527-66-32     -2   56   84  -0.490   0.190        0
  5023  1527-71-22     -2   56   84  -0.490   0.190        0
  5024  1527-71-365     2   56   84  -0.490   0.190        0
  5025  1589-42-355     2   54   82   0.480   0.470        0
  5026  1589-48-350     2   54   82   0.480   0.470        0
  5027  1589-55-360     2   54   82   0.480   0.470        0
  5028  1589-61-14      2   54   82   0.480   0.470        0
  5029  1589-66-32      2   54   82   0.480   0.470        0
  5030  1589-71-22      2   54   82   0.480   0.470        0
  5031  1589-71-365     2   54   82   0.480   0.470        0
  5032  1586-32-68      2   54   81   0.490   0.170        0
  5033  1586-48-356     2   54   81   0.490   0.170        0
  5034  1586-56-6       2   54   81   0.490   0.170        0
  5035  1586-60-356     2   54   81   0.490   0.170        0
  5036  1586-66-1       2   54   81   0.490   0.170        0
  5037  1586-71-35      2   54   81   0.490   0.170        0
  5038  1586-71-365     2   54   81   0.490   0.170        0
  5039  1532-42-355     2   55   81   0.180   0.330        0
  5040  1532-48-348     2   55   81   0.180   0.330        0
  5041  1532-55-354     2   55   81   0.180   0.330        0
  5042  1532-61-28      2   55   81   0.180   0.330        0
  5043  1532-66-46      2   55   81   0.180   0.330        0
  5044  1532-71-22      2   55   81   0.180   0.330        0
  5045  1532-71-365     2   55   81   0.180   0.330        0
  5046  1534-42-355     2   55   81   0.440  -0.350        0
  5047  1534-48-348     2   55   81   0.440  -0.350        0
  5048  1534-55-360     2   55   81   0.440  -0.350        0
  5049  1534-61-5       2   55   81   0.440  -0.350        0
  5050  1534-66-46      2   55   81   0.440  -0.350        0
  5051  1534-71-35      2   55   81   0.440  -0.350        0
  5052  1534-71-365     2   55   81   0.440  -0.350        0
  5053  1524-42-355     2   55   82   0.480   0.440        0
  5054  1524-48-348     2   55   82   0.480   0.440        0
  5055  1524-56-6       2   55   82   0.480   0.440        0
  5056  1524-60-356     2   55   82   0.480   0.440        0
  5057  1524-66-1       2   55   82   0.480   0.440        0
  5058  1524-71-48      2   55   82   0.480   0.440        0
  5059  1524-71-365     2   55   82   0.480   0.440        0
  5060  1561-21-340     2   55   80  -0.170  -0.070        0
  5061  1561-32-64      2   55   80  -0.170  -0.070        0
  5062  1561-42-355     2   55   80  -0.170  -0.070        0
  5063  1561-48-350     2   55   80  -0.170  -0.070        0
  5064  1561-55-360     2   55   80  -0.170  -0.070        0
  5065  1561-61-26      2   55   80  -0.170  -0.070        0
  5066  1561-66-46      2   55   80  -0.170  -0.070        0
  5067  1561-71-39      2   55   80  -0.170  -0.070        0
  5068  1561-71-365     2   55   80  -0.170  -0.070        0
  5069  1571-2-94       1   55   79  -0.360   0.250        0
  5070  1572-48-356     2   55   79  -0.390  -0.140        0
  5071  1572-56-6       2   55   79  -0.390  -0.140        0
  5072  1572-61-26      2   55   79  -0.390  -0.140        0
  5073  1572-66-12      2   55   79  -0.390  -0.140        0
  5074  1572-71-48      2   55   79  -0.390  -0.140        0
  5075  1572-71-365     2   55   79  -0.390  -0.140        0
  5076  1549-21-319     2   55   80  -0.050  -0.430        0
  5077  1549-56-6       2   55   80  -0.050  -0.430        0
  5078  1549-60-356     2   55   80  -0.050  -0.430        0
  5079  1549-65-350     2   55   80  -0.050  -0.430        0
  5080  1549-71-67      2   55   80  -0.050  -0.430        0
  5081  1549-71-365     2   55   80  -0.050  -0.430        0
  5082  1547-27-62      2   55   79   0.180   0.150        0
  5083  1521-42-355     2   56   79  -0.210   0.150        0
  5084  1521-48-350     2   56   79  -0.210   0.150        0
  5085  1521-55-360     2   56   79  -0.210   0.150        0
  5086  1521-60-356     2   56   79  -0.210   0.150        0
  5087  1521-66-46      2   56   79  -0.210   0.150        0
  5088  1521-71-48      2   56   79  -0.210   0.150        0
  5089  1521-71-365     2   56   79  -0.210   0.150        0
  5090  1573-48-356     2   55   77  -0.320   0.230        0
  5091  1573-55-360     2   55   77  -0.320   0.230        0
  5092  1573-60-357     2   55   77  -0.320   0.230        0
  5093  1573-66-54      2   55   77  -0.320   0.230        0
  5094  1573-71-19      2   55   77  -0.320   0.230        0
  5095  1573-71-365     2   55   77  -0.320   0.230        0
  5096  1545-32-77     -2   55   77   0.140   0.200        0
  5097  1545-42-356     2   55   77   0.140   0.200        0
  5098  1545-48-350     2   55   77   0.140   0.200        0
  5099  1545-56-11      2   55   77   0.140   0.200        0
  5100  1545-61-14      2   55   77   0.140   0.200        0
  5101  1545-66-54      2   55   77   0.140   0.200        0
  5102  1545-71-19      2   55   77   0.140   0.200        0
  5103  1545-71-365     2   55   77   0.140   0.200        0
  5104  1535-42-356     2   55   78   0.330  -0.440        0
  5105  1535-48-350     2   55   78   0.330  -0.440        0
  5106  1535-56-11      2   55   78   0.330  -0.440        0
  5107  1535-60-357     2   55   78   0.330  -0.440        0
  5108  1535-66-47      2   55   78   0.330  -0.440        0
  5109  1535-71-19      2   55   78   0.330  -0.440        0
  5110  1535-71-365     2   55   78   0.330  -0.440        0
  5111  1507-42-356     2   56   77   0.100   0.070        0
  5112  1507-48-350     2   56   77   0.100   0.070        0
  5113  1507-56-11      2   56   77   0.100   0.070        0
  5114  1507-60-357     2   56   77   0.100   0.070        0
  5115  1507-66-54      2   56   77   0.100   0.070        0
  5116  1507-71-19      2   56   77   0.100   0.070        0
  5117  1507-71-365     2   56   77   0.100   0.070        0
  5118  1523-16-54     -2   56   77  -0.360   0.200        0
  5119  1575-22-81      2   55   76  -0.430   0.350        0
  5120  1575-32-77      2   55   76  -0.430   0.350        0
  5121  1575-42-356     2   55   76  -0.430   0.350        0
  5122  1575-48-350     2   55   76  -0.430   0.350        0
  5123  1575-55-343     2   55   76  -0.430   0.350        0
  5124  1575-61-11      2   55   76  -0.430   0.350        0
  5125  1575-71-365     2   55   76  -0.430   0.350        0
  5126  1577-22-81     -2   55   75  -0.470   0.310        0
  5127  1580-42-355     2   55   75  -0.470   0.310        0
  5128  1580-48-355     2   55   75  -0.470   0.310        0
  5129  1580-56-13      2   55   75  -0.470   0.310        0
  5130  1580-61-12      2   55   75  -0.470   0.310        0
  5131  1580-66-54      2   55   75  -0.470   0.310        0
  5132  1580-71-365     2   55   75  -0.470   0.310        0
  5133  1536-17-79      2   55   75   0.220  -0.080        0
  5134  1536-22-82      2   55   75   0.220  -0.080        0
  5135  1536-32-77      2   55   75   0.220  -0.080        0
  5136  1536-42-356     2   55   75   0.220  -0.080        0
  5137  1536-48-350     2   55   75   0.220  -0.080        0
  5138  1536-55-340     2   55   75   0.220  -0.080        0
  5139  1536-66-54      2   55   75   0.220  -0.080        0
  5140  1536-71-365     2   55   75   0.220  -0.080        0
  5141  1516-42-356     2   56   76  -0.200  -0.430        0
  5142  1516-48-350     2   56   76  -0.200  -0.430        0
  5143  1516-56-11      2   56   76  -0.200  -0.430        0
  5144  1516-61-27      2   56   76  -0.200  -0.430        0
  5145  1516-66-54      2   56   76  -0.200  -0.430        0
  5146  1516-71-365     2   56   76  -0.200  -0.430        0
  5147  1528-22-82      2   55   76   0.380   0.060        0
  5148  1528-27-63      2   55   76   0.380   0.060        0
  5149  1528-32-77      2   55   76   0.380   0.060        0
  5150  1528-65-350     2   55   76   0.380   0.060        0
  5151  1528-71-365     2   55   76   0.380   0.060        0
  5152  1514-42-356     2   56   76  -0.090   0.320        0
  5153  1514-48-350     2   56   76  -0.090   0.320        0
  5154  1514-55-340     2   56   76  -0.090   0.320        0
  5155  1514-61-27      2   56   76  -0.090   0.320        0
  5156  1514-66-54      2   56   76  -0.090   0.320        0
  5157  1514-71-48      2   56   76  -0.090   0.320        0
  5158  1514-71-365     2   56   76  -0.090   0.320        0
  5159  1495-42-356     2   56   77   0.410   0.170        0
  5160  1495-48-350     2   56   77   0.410   0.170        0
  5161  1495-55-343     2   56   77   0.410   0.170        0
  5162  1495-61-41      2   56   77   0.410   0.170        0
  5163  1495-66-54      2   56   77   0.410   0.170        0
  5164  1495-71-19      2   56   77   0.410   0.170        0
  5165  1495-71-365     2   56   77   0.410   0.170        0
  5166  1484-37-343     2   57   77  -0.320  -0.250        0
  5167  1484-42-356     2   57   77  -0.320  -0.250        0
  5168  1484-56-11      2   57   77  -0.320  -0.250        0
  5169  1484-60-357     2   57   77  -0.320  -0.250        0
  5170  1484-66-53      2   57   77  -0.320  -0.250        0
  5171  1484-71-19      2   57   77  -0.320  -0.250        0
  5172  1484-71-365     2   57   77  -0.320  -0.250        0
  5173  1463-56-34      1   57   77   0.100  -0.290        0
  5174  1463-60-357     1   57   77   0.100  -0.290        0
  5175  1463-66-53      1   57   77   0.100  -0.290        0
  5176  1463-71-19      1   57   77   0.100  -0.290        0
  5177  1463-71-365     1   57   77   0.100  -0.290        0
  5178  1483-42-355     2   57   80  -0.220   0.230        0
  5179  1483-48-348     2   57   80  -0.220   0.230        0
  5180  1483-56-6       2   57   80  -0.220   0.230        0
  5181  1483-60-357     2   57   80  -0.220   0.230        0
  5182  1483-66-46      2   57   80  -0.220   0.230        0
  5183  1483-71-35      2   57   80  -0.220   0.230        0
  5184  1483-71-365     2   57   80  -0.220   0.230        0
  5185  1437-16-300    -2   58   80  -0.260  -0.450        0
  5186  1437-22-32     -2   58   80  -0.260  -0.450        0
  5187  1437-27-12     -2   58   80  -0.260  -0.450        0
  5188  1438-42-362     2   58   79  -0.330   0.090        0
  5189  1438-56-20      2   58   79  -0.330   0.090        0
  5190  1438-61-53      2   58   79  -0.330   0.090        0
  5191  1438-66-32      2   58   79  -0.330   0.090        0
  5192  1438-71-40      2   58   79  -0.330   0.090        0
  5193  1445-27-76      2   57   81   0.470  -0.410        0
  5194  1445-32-55      2   57   81   0.470  -0.410        0
  5195  1445-42-356     2   57   81   0.470  -0.410        0
  5196  1445-48-348     2   57   81   0.470  -0.410        0
  5197  1445-55-360     2   57   81   0.470  -0.410        0
  5198  1445-60-357     2   57   81   0.470  -0.410        0
  5199  1445-66-1       2   57   81   0.470  -0.410        0
  5200  1445-71-35      2   57   81   0.470  -0.410        0
  5201  1445-71-365     2   57   81   0.470  -0.410        0
  5202  1489-32-63      2   57   82  -0.410  -0.370        0
  5203  1489-42-355     2   57   82  -0.410  -0.370        0
  5204  1489-48-348     2   57   82  -0.410  -0.370        0
  5205  1489-55-353     2   57   82  -0.410  -0.370        0
  5206  1489-61-28      2   57   82  -0.410  -0.370        0
  5207  1489-66-39      2   57   82  -0.410  -0.370        0
  5208  1489-71-22      2   57   82  -0.410  -0.370        0
  5209  1489-71-365     2   57   82  -0.410  -0.370        0
  5210  1469-42-355     2   57   82   0.090   0.410        0
  5211  1469-48-348     2   57   82   0.090   0.410        0
  5212  1469-55-357     2   57   82   0.090   0.410        0
  5213  1469-61-54      2   57   82   0.090   0.410        0
  5214  1494-66-46      2   56   83   0.360  -0.460        0
  5215  1469-71-71      2   57   82   0.090   0.410        0
  5216  1469-71-365     2   57   82   0.090   0.410        0
  5217  1464-12-102     2   57   83   0.010  -0.170        0
  5218  1464-32-63      2   57   83   0.010  -0.170        0
  5219  1464-42-354     2   57   83   0.010  -0.170        0
  5220  1439-37-90      2   58   83  -0.380  -0.300        0
  5221  1439-42-355     2   58   83  -0.380  -0.300        0
  5222  1439-48-348     2   58   83  -0.380  -0.300        0
  5223  1439-56-6       2   58   83  -0.380  -0.300        0
  5224  1439-61-28      2   58   83  -0.380  -0.300        0
  5225  1439-66-46      2   58   83  -0.380  -0.300        0
  5226  1439-71-71      2   58   83  -0.380  -0.300        0
  5227  1439-71-365     2   58   83  -0.380  -0.300        0
  5228  1435-42-355     2   58   83  -0.150   0.000        0
  5229  1435-48-348     2   58   83  -0.150   0.000        0
  5230  1435-55-361     2   58   83  -0.150   0.000        0
  5231  1435-61-11      2   58   83  -0.150   0.000        0
  5232  1435-66-49      2   58   83  -0.150   0.000        0
  5233  1435-71-71      2   58   83  -0.150   0.000        0
  5234  1435-71-365     2   58   83  -0.150   0.000        0
  5235  1449-37-30     -2   57   85   0.350  -0.050        0
  5236  1414-7-138      2   59   85  -0.470   0.210        0
  5237  1414-32-64      2   59   85  -0.470   0.210        0
  5238  1414-38-60      2   59   85  -0.470   0.210        0
  5239  1414-42-354     2   59   85  -0.470   0.210        0
  5240  1379-71-356     2   60   85  -0.130  -0.310        0
  5241  1425-2-94       2   58   84   0.380   0.040        0
  5242  1425-16-359     2   58   84   0.380   0.040        0
  5243  1425-22-32      2   58   84   0.380   0.040        0
  5244  1425-27-12      2   58   84   0.380   0.040        0
  5245  1382-42-355     2   60   83  -0.350  -0.330        0
  5246  1382-48-348     2   60   83  -0.350  -0.330        0
  5247  1382-56-6       2   60   83  -0.350  -0.330        0
  5248  1382-61-54      2   60   83  -0.350  -0.330        0
  5249  1382-66-46      2   60   83  -0.350  -0.330        0
  5250  1382-71-22      2   60   83  -0.350  -0.330        0
  5251  1382-71-365     2   60   83  -0.350  -0.330        0
  5252  1413-32-64     -2   59   80  -0.220  -0.390        0
  5253  1413-37-48     -2   59   80  -0.220  -0.390        0
  5254  1413-56-6       2   59   80  -0.220  -0.390        0
  5255  1413-61-26      2   59   80  -0.220  -0.390        0
  5256  1413-66-53      2   59   80  -0.220  -0.390        0
  5257  1413-71-48      2   59   80  -0.220  -0.390        0
  5258  1395-32-64      2   59   79   0.390   0.000        0
  5259  1395-42-355     2   59   79   0.390   0.000        0
  5260  1395-48-348     2   59   79   0.390   0.000        0
  5261  1395-56-6       2   59   79   0.390   0.000        0
  5262  1395-61-26      2   59   79   0.390   0.000        0
  5263  1395-66-1       2   59   79   0.390   0.000        0
  5264  1395-71-48      2   59   79   0.390   0.000        0
  5265  1395-71-365     2   59   79   0.390   0.000        0
  5266  1377-35-16      2   60   79   0.080  -0.260        0
  5267  1377-42-355     2   60   79   0.080  -0.260        0
  5268  1377-48-348     2   60   79   0.080  -0.260        0
  5269  1377-56-6       2   60   79   0.080  -0.260        0
  5270  1377-61-26      2   60   79   0.080  -0.260        0
  5271  1377-66-53      2   60   79   0.080  -0.260        0
  5272  1377-71-365     2   60   79   0.080  -0.260        0
  5273  1394-42-355     2   59   80   0.270   0.490        0
  5274  1394-48-348     2   59   80   0.270   0.490        0
  5275  1394-56-6       2   59   80   0.270   0.490        0
  5276  1394-61-26      2   59   80   0.270   0.490        0
  5277  1394-66-53      2   59   80   0.270   0.490        0
  5278  1394-71-365     2   59   80   0.270   0.490        0
  5279  1375-32-64      2   60   81   0.150  -0.470        0
  5280  1375-42-355     2   60   81   0.150  -0.470        0
  5281  1375-48-348     2   60   81   0.150  -0.470        0
  5282  1375-56-6       2   60   81   0.150  -0.470        0
  5283  1375-61-26      2   60   81   0.150  -0.470        0
  5284  1375-66-53      2   60   81   0.150  -0.470        0
  5285  1375-71-365     2   60   81   0.150  -0.470        0
  5286  1396-17-90      2   59   77   0.280  -0.350        0
  5287  1396-22-81      2   59   77   0.280  -0.350        0
  5288  1396-32-63      2   59   77   0.280  -0.350        0
  5289  1396-42-355     2   59   77   0.280  -0.350        0
  5290  1396-48-350     2   59   77   0.280  -0.350        0
  5291  1396-56-11      2   59   77   0.280  -0.350        0
  5292  1396-61-26      2   59   77   0.280  -0.350        0
  5293  1396-66-53      2   59   77   0.280  -0.350        0
  5294  1396-71-365     2   59   77   0.280  -0.350        0
  5295  1415-22-82      1   59   76  -0.450  -0.160        0
  5296  1415-32-63      1   59   76  -0.450  -0.160        0
  5297  1415-37-90      2   59   76  -0.450  -0.160        0
  5298  1415-42-355     2   59   76  -0.450  -0.160        0
  5299  1415-48-350     2   59   76  -0.450  -0.160        0
  5300  1415-56-11      2   59   76  -0.450  -0.160        0
  5301  1415-61-27      2   59   76  -0.450  -0.160        0
  5302  1415-66-49      2   59   76  -0.450  -0.160        0
  5303  1415-71-365     2   59   76  -0.450  -0.160        0
  5304  1323-2-88       2   61   78   0.110  -0.210        0
  5305  1368-17-85     -2   60   77   0.310  -0.350        0
  5306  1368-22-81     -2   60   77   0.310  -0.350        0
  5307  1368-27-15      2   60   77   0.310  -0.350        0
  5308  1368-42-355     2   60   77   0.310  -0.350        0
  5309  1368-55-339     2   60   77   0.310  -0.350        0
  5310  1368-66-49     -2   60   77   0.310  -0.350        0
  5311  1368-71-365    -2   60   77   0.310  -0.350        0
  5312  1327-71-365     2   61   80   0.030   0.110        0
  5313  1369-71-365     2   60   79   0.270   0.490        0
  5314  1326-71-365     2   61   79   0.070   0.390        0
  5315  1302-71-365     2   62   80  -0.430  -0.380        0
  5316  1269-37-48      2   62   83   0.140  -0.420        0
  5317  1269-66-1       2   62   83   0.140  -0.420        0
  5318  1269-71-365     2   62   83   0.140  -0.420        0
  5319  1277-66-59      2   62   83   0.100  -0.420        0
  5320  1330-48-345     2   61   83  -0.010  -0.060        0
  5321  1330-56-17      2   61   83  -0.010  -0.060        0
  5322  1322-2-94       2   61   83   0.100  -0.190        0
  5323  1331-48-345     2   61   83  -0.130   0.290        0
  5324  1331-56-17      2   61   83  -0.130   0.290        0
  5325  1331-61-54      2   61   83  -0.130   0.290        0
  5326  1331-66-32      2   61   83  -0.130   0.290        0
  5327  1331-71-40      2   61   83  -0.130   0.290        0
  5328  1276-12-99      2   62   84   0.130   0.470        0
  5329  1276-17-90      2   62   84   0.130   0.470        0
  5330  1771-33-65      3   52   91  -0.250   0.150        0
  5331  1880-42-356     3   52   91  -0.140  -0.180        0
  5332  1880-48-335     3   52   91  -0.140  -0.180        0
  5333  1880-61-60      3   52   91  -0.140  -0.180        0
  5334  1880-66-25      3   52   91  -0.140  -0.180        0
  5335  1735-34-152     3   52   91   0.050  -0.020        0
  5336  1840-16-362     2   51   89   0.330   0.260        0
  5337  1794-3-36       1   51   91   0.400  -0.440        0
  5338  1794-16-362     1   51   91   0.400  -0.440        0
  5339  1794-27-12      1   51   91   0.400  -0.440        0
  5340  1794-71-39      1   51   91   0.400  -0.440        0
  5341  1794-71-365     1   51   91   0.400  -0.440        0
  5342  1796-16-362     3   52   90  -0.400  -0.190        0
  5343  1806-55-348     3   52   90  -0.440   0.140        0
  5344  1806-60-364     3   52   90  -0.440   0.140        0
  5345  1806-66-1       3   52   90  -0.440   0.140        0
  5346  1806-71-39      3   52   90  -0.440   0.140        0
  5347  1806-71-365     3   52   90  -0.440   0.140        0
  5348  1788-55-348     2   52   90  -0.360   0.140        0
  5349  1788-60-364     2   52   90  -0.360   0.140        0
  5350  1788-66-21      2   52   90  -0.360   0.140        0
  5351  1788-71-39      2   52   90  -0.360   0.140        0
  5352  1788-71-365     2   52   90  -0.360   0.140        0
  5353  1782-42-355     3   52   90  -0.330   0.140        0
  5354  1782-48-348     3   52   90  -0.330   0.140        0
  5355  1782-55-348     3   52   90  -0.330   0.140        0
  5356  1782-60-364     3   52   90  -0.330   0.140        0
  5357  1782-66-28      3   52   90  -0.330   0.140        0
  5358  1782-71-39      2   52   90  -0.330   0.140        0
  5359  1782-71-365     2   52   90  -0.330   0.140        0
  5360  1807-66-28      2   52   90  -0.440   0.140        0
  5361  1807-71-39      2   52   90  -0.440   0.140        0
  5362  1807-71-365     2   52   90  -0.440   0.140        0
  5363  1896-55-348     2   51   87  -0.430   0.400        0
  5364  1881-71-39      2   51   88  -0.200  -0.370        0
  5365  1881-71-365     2   51   88  -0.200  -0.370        0
  5366  1841-1-357      2   51   87   0.340  -0.210        0
  5367  1773-34-91      2   52   87  -0.240   0.410        0
  5368  1821-48-302     2   51   88   0.490   0.280        0
  5369  1798-16-362     2   52   88  -0.400   0.280        0
  5370  1797-48-348     2   52   89  -0.400  -0.390        0
  5371  1797-55-348     2   52   89  -0.400  -0.390        0
  5372  1797-60-354     2   52   89  -0.400  -0.390        0
  5373  1797-66-28      2   52   89  -0.400  -0.390        0
  5374  1797-71-39      2   52   89  -0.400  -0.390        0
  5375  1797-71-365     2   52   89  -0.400  -0.390        0
  5376  1789-42-356     2   52   89  -0.360  -0.390        0
  5377  1789-55-348     2   52   89  -0.360  -0.390        0
  5378  1789-60-364     2   52   89  -0.360  -0.390        0
  5379  1789-66-28      2   52   89  -0.360  -0.390        0
  5380  1789-71-39      2   52   89  -0.360  -0.390        0
  5381  1789-71-365     2   52   89  -0.360  -0.390        0
  5382  1780-66-28      2   52   89  -0.400  -0.390        0
  5383  1780-71-39      2   52   89  -0.400  -0.390        0
  5384  1780-71-365     2   52   89  -0.400  -0.390        0
  5385  1799-42-356     2   52   88  -0.400  -0.270        0
  5386  1799-48-335     2   52   88  -0.400  -0.270        0
  5387  1736-34-152     2   52   88   0.060  -0.170        0
  5388  1613-42-355     2   54   87  -0.250  -0.140        0
  5389  1613-48-348     2   54   87  -0.250  -0.140        0
  5390  1613-55-348     2   54   87  -0.250  -0.140        0
  5391  1613-61-41      2   54   87  -0.250  -0.140        0
  5392  1613-66-12      2   54   87  -0.250  -0.140        0
  5393  1613-71-22      2   54   87  -0.250  -0.140        0
  5394  1613-71-365     2   54   87  -0.250  -0.140        0
  5395  1606-55-348     2   54   87  -0.020   0.150        0
  5396  1606-61-41      2   54   87  -0.020   0.150        0
  5397  1606-66-12      2   54   87  -0.020   0.150        0
  5398  1606-71-22      2   54   87  -0.020   0.150        0
  5399  1606-71-365     2   54   87  -0.020   0.150        0
  5400  1620-2-90       2   54   88  -0.370  -0.230        0
  5401  1620-12-324     2   54   88  -0.370  -0.230        0
  5402  1620-16-362     2   54   88  -0.370  -0.230        0
  5403  1705-48-335     2   52   92   0.320   0.320        0
  5404  1705-56-16      2   52   92   0.320   0.320        0
  5405  1705-61-60      2   52   92   0.320   0.320        0
  5406  1705-66-25      2   52   92   0.320   0.320        0
  5407  1530-48-335     3   55   88   0.350   0.200        0
  5408  1530-56-16      3   55   88   0.350   0.200        0
  5409  1530-61-60      3   55   88   0.350   0.200        0
  5410  1434-37-27      3   58   87  -0.310  -0.360        0
  5411  1434-42-356     3   58   87  -0.310  -0.360        0
  5412  1434-56-17      3   58   87  -0.310  -0.360        0
  5413  1434-60-321     3   58   87  -0.310  -0.360        0
  5414  1434-65-298     3   58   87  -0.310  -0.360        0
  5415  1434-71-365     3   58   87  -0.310  -0.360        0
  5416  1384-48-335     3   59   88   0.480  -0.050        0
  5417  1344-48-348     3   61   87  -0.290   0.330        0
  5418  1344-55-348     3   61   87  -0.290   0.330        0
  5419  1344-61-41      3   61   87  -0.290   0.330        0
  5420  1344-66-5       3   61   87  -0.290   0.330        0
  5421  1344-71-356     3   61   87  -0.290   0.330        0
  5422  1354-2-93       2   61   87  -0.480  -0.260        0
  5423  1354-7-52       2   61   87  -0.480  -0.260        0
  5424  1354-12-102     2   61   87  -0.480  -0.260        0
  5425  1354-17-71      2   61   87  -0.480  -0.260        0
  5426  1354-22-32      2   61   87  -0.480  -0.260        0
  5427  1354-32-90      2   61   87  -0.480  -0.260        0
  5428  1354-38-60      2   61   87  -0.480  -0.260        0
  5429  1358-32-90      3   61   87  -0.290  -0.350        0
  5430  1358-48-336     3   61   87  -0.290  -0.350        0
  5431  846-17-5        3   73   19  -0.300  -0.090        0
  5432  846-22-33       3   73   19  -0.300  -0.090        0
  5433  846-48-348      3   73   19  -0.300  -0.090        0
  5434  846-61-25       3   73   19  -0.300  -0.090        0
  5435  846-65-362      3   73   19  -0.300  -0.090        0
  5436  846-71-365      3   73   19  -0.300  -0.090        0
  5437  829-48-348      3   74   18  -0.310   0.420        0
  5438  829-55-353      3   74   18  -0.310   0.420        0
  5439  829-61-35       3   74   18  -0.310   0.420        0
  5440  829-65-362      3   74   18  -0.310   0.420        0
  5441  829-71-365      3   74   18  -0.310   0.420        0
  5442  839-12-121     -2   73   19   0.310   0.010        0
  5443  839-71-365     -2   73   19   0.310   0.010        0
  5444  817-1-220       2   74   19   0.080   0.140        0
  5445  817-6-331       2   74   19   0.080   0.140        0
  5446  817-12-8        2   74   19   0.080   0.140        0
  5447  813-32-87       3   74   19   0.110  -0.420        0
  5448  813-37-33       3   74   19   0.110  -0.420        0
  5449  813-42-350      3   74   19   0.110  -0.420        0
  5450  813-48-348      3   74   19   0.110  -0.420        0
  5451  813-56-17       3   74   19   0.110  -0.420        0
  5452  813-60-323      3   74   19   0.110  -0.420        0
  5453  813-65-301      3   74   19   0.110  -0.420        0
  5454  813-71-365      3   74   19   0.110  -0.420        0
  5455  818-17-5        2   74   19   0.080  -0.160        0
  5456  820-1-108       2   74   20  -0.030   0.150        0
  5457  812-17-5       -2   74   19   0.160   0.430        0
  5458  812-36-157     -2   74   19   0.160   0.430        0
  5459  812-56-17      -2   74   19   0.160   0.430        0
  5460  812-61-61      -2   74   19   0.160   0.430        0
  5461  812-66-19      -2   74   19   0.160   0.430        0
  5462  811-56-19       2   74   19   0.040   0.330        0
  5463  811-66-20       2   74   19   0.040   0.330        0
  5464  796-65-362      2   75   20  -0.270  -0.050        0
  5465  796-71-365      2   75   20  -0.270  -0.050        0
  5466  833-8-18       -2   73   21   0.470   0.130        0
  5467  822-1-63        2   74   21  -0.110   0.060        0
  5468  830-1-365       2   74   22  -0.340  -0.450        0
  5469  821-56-17       3   74   21  -0.140   0.390        0
  5470  821-61-61       3   74   21  -0.140   0.390        0
  5471  845-1-73        2   73   24  -0.360   0.190        0
  5472  845-7-2         2   73   24  -0.360   0.190        0
  5473  845-11-272      2   73   24  -0.360   0.190        0
  5474  845-16-318      2   73   24  -0.360   0.190        0
  5475  845-22-33       2   73   24  -0.360   0.190        0
  5476  845-31-351      2   73   24  -0.360   0.190        0
  5477  845-36-62       2   73   24  -0.360   0.190        0
  5478  845-42-350      2   73   24  -0.360   0.190        0
  5479  845-48-348      2   73   24  -0.360   0.190        0
  5480  845-56-19       2   73   24  -0.360   0.190        0
  5481  845-60-323      2   73   24  -0.360   0.190        0
  5482  845-65-301      2   73   24  -0.360   0.190        0
  5483  845-71-13       2   73   24  -0.360   0.190        0
  5484  1183-16-315    -2   64   29   0.310  -0.420        0
  5485  1183-26-354    -2   64   29   0.310  -0.420        0
  5486  1183-31-362    -2   64   29   0.310  -0.420        0
  5487  1183-36-356    -2   64   29   0.310  -0.420        0
  5488  1183-42-350    -2   64   29   0.310  -0.420        0
  5489  1183-48-348    -2   64   29   0.310  -0.420        0
  5490  1183-66-25     -2   64   29   0.310  -0.420        0
  5491  1183-71-365    -2   64   29   0.310  -0.420        0
  5492  1190-56-23     -2   64   29   0.310   0.290        0
  5493  1190-61-54     -2   64   29   0.310   0.290        0
  5494  1190-66-25     -2   64   29   0.310   0.290        0
  5495  1186-3-344      2   64   30   0.310  -0.380        0
  5496  1186-5-69       2   64   30   0.310  -0.380        0
  5497  1186-17-6       2   64   30   0.310  -0.380        0
  5498  1185-10-213     2   64   30   0.310  -0.350        0
  5499  1178-38-335     3   64   32   0.350   0.320        0
  5500  1178-42-349     3   64   32   0.350   0.320        0
  5501  1178-48-349     3   64   32   0.350   0.320        0
  5502  1178-55-353     3   64   32   0.350   0.320        0
  5503  1178-61-21      3   64   32   0.350   0.320        0
  5504  1178-66-34      3   64   32   0.350   0.320        0
  5505  1178-71-365     3   64   32   0.350   0.320        0
  5506  1182-66-25      2   64   31   0.350   0.310        0
  5507  1132-12-4       2   66   32  -0.420   0.250        0
  5508  1134-1-73       2   66   32  -0.500   0.380        0
  5509  1148-17-12     -2   65   36   0.280   0.290        0
  5510  1148-21-356    -2   65   36   0.280   0.290        0
  5511  1148-27-27     -2   65   36   0.280   0.290        0
  5512  1148-31-348    -2   65   36   0.280   0.290        0
  5513  1148-37-23     -2   65   36   0.280   0.290        0
  5514  1148-42-349    -2   65   36   0.280   0.290        0
  5515  1148-48-348    -2   65   36   0.280   0.290        0
  5516  1148-55-353    -2   65   36   0.280   0.290        0
  5517  1148-61-34     -2   65   36   0.280   0.290        0
  5518  1148-66-6      -2   65   36   0.280   0.290        0
  5519  1148-71-365    -2   65   36   0.280   0.290        0
  5520  1177-35-321     3   64   35   0.400  -0.470        0
  5521  1177-42-349     3   64   35   0.400  -0.470        0
  5522  1177-48-348     3   64   35   0.400  -0.470        0
  5523  1177-55-353     3   64   35   0.400  -0.470        0
  5524  1177-61-21      3   64   35   0.400  -0.470        0
  5525  1177-66-34      3   64   35   0.400  -0.470        0
  5526  1177-71-50      3   64   35   0.400  -0.470        0
  5527  1105-12-4       2   66   36   0.240   0.350        0
  5528  1105-16-333     2   66   36   0.240   0.350        0
  5529  1105-21-356     2   66   36   0.240   0.350        0
  5530  1106-42-349     3   66   37   0.310  -0.480        0
  5531  1106-55-353     3   66   37   0.310  -0.480        0
  5532  1106-61-13      3   66   37   0.310  -0.480        0
  5533  1106-66-6       3   66   37   0.310  -0.480        0
  5534  1106-71-365     3   66   37   0.310  -0.480        0
  5535  1102-66-6       3   66   37   0.280   0.400        0
  5536  1102-71-365     3   66   37   0.280   0.400        0
  5537  1120-3-152      2   66   38  -0.220  -0.250        0
  5538  1089-42-349    -2   66   34   0.420   0.430        0
  5539  1089-48-349    -2   66   34   0.420   0.430        0
  5540  1089-55-353    -2   66   34   0.420   0.430        0
  5541  1089-61-34     -2   66   34   0.420   0.430        0
  5542  1089-66-6      -2   66   34   0.420   0.430        0
  5543  1089-71-365    -2   66   34   0.420   0.430        0
  5544  1093-66-6       3   66   34   0.420   0.400        0
  5545  1093-71-365     3   66   34   0.420   0.400        0
  5546  1087-48-349    -2   66   33   0.420  -0.460        0
  5547  1087-61-24     -2   66   33   0.420  -0.460        0
  5548  1087-71-70     -2   66   33   0.420  -0.460        0
  5549  1097-15-1       3   66   41   0.360  -0.280        0
  5550  996-26-315      3   68   33   0.330  -0.400        0
  5551  996-48-349      3   68   33   0.330  -0.400        0
  5552  996-55-353      3   68   33   0.330  -0.400        0
  5553  996-61-11       3   68   33   0.330  -0.400        0
  5554  996-66-6        3   68   33   0.330  -0.400        0
  5555  996-71-365      3   68   33   0.330  -0.400        0
  5556  995-39-335     -2   68   34   0.340   0.360        0
  5557  995-42-349     -2   68   34   0.340   0.360        0
  5558  995-55-353     -2   68   34   0.340   0.360        0
  5559  995-61-34      -2   68   34   0.340   0.360        0
  5560  995-66-6       -2   68   34   0.340   0.360        0
  5561  995-71-365      3   68   34   0.340   0.360        0
  5562  1090-12-5       2   66   30   0.490   0.100        0
  5563  1090-17-5       2   66   30   0.490   0.100        0
  5564  969-56-19       3   69   26  -0.410   0.350        0
  5565  969-71-365      3   69   26  -0.410   0.350        0
  5566  983-42-349      3   68   30   0.440   0.420        0
  5567  983-55-353      3   68   30   0.440   0.420        0
  5568  983-61-34       3   68   30   0.440   0.420        0
  5569  983-66-6        3   68   30   0.440   0.420        0
  5570  983-71-365      3   68   30   0.440   0.420        0
  5571  982-39-238      3   68   30   0.480  -0.130        0
  5572  921-42-305      3   70   33   0.250  -0.400        0
  5573  921-48-349      3   70   33   0.250  -0.400        0
  5574  921-61-34       3   70   33   0.250  -0.400        0
  5575  921-65-356      3   70   33   0.250  -0.400        0
  5576  921-71-365      3   70   33   0.250  -0.400        0
  5577  924-43-60       3   70   34   0.210   0.390        0
  5578  924-48-348      3   70   34   0.210   0.390        0
  5579  924-55-353      3   70   34   0.210   0.390        0
  5580  924-61-34       3   70   34   0.210   0.390        0
  5581  924-66-6        3   70   34   0.210   0.390        0
  5582  924-71-365      3   70   34   0.210   0.390        0
  5583  909-56-16       3   71   32  -0.490  -0.380        0
  5584  911-34-337      3   70   31   0.470  -0.390        0
  5585  900-56-19      -2   71   27  -0.310   0.060        0
  5586  900-61-61      -2   71   27  -0.310   0.060        0
  5587  848-56-18      -2   73   28  -0.310  -0.290        0
  5588  848-66-28      -2   73   28  -0.310  -0.290        0
  5589  826-56-19       2   74   28  -0.200   0.330        0
  5590  800-61-61       2   74   28   0.330   0.290        0
  5591  800-66-28       2   74   28   0.330   0.290        0
  5592  803-33-59       2   74   29   0.370  -0.320        0
  5593  852-2-305       2   72   35   0.320   0.200        0
  5594  1249-56-27      2   62   61   0.470   0.000        0
  5595  1249-66-13      2   62   61   0.470   0.000        0
  5596  1249-71-365     2   62   61   0.470   0.000        0
  5597  1235-22-32     -2   63   61  -0.230  -0.290        0
  5598  1235-42-362    -2   63   61  -0.230  -0.290        0
  5599  1235-48-357    -2   63   61  -0.230  -0.290        0
  5600  1235-56-32     -2   63   61  -0.230  -0.290        0
  5601  1238-48-320     3   63   61  -0.270  -0.230        0
  5602  1238-56-10      3   63   61  -0.270  -0.230        0
  5603  1238-66-10      3   63   61  -0.270  -0.230        0
  5604  1238-71-41      2   63   61  -0.270  -0.230        0
  5605  1238-71-365     2   63   61  -0.270  -0.230        0
  5606  1225-1-365      1   63   61   0.270   0.200        0
  5607  1200-56-30      2   64   61  -0.080  -0.420        0
  5608  1200-66-10      1   64   61  -0.080  -0.420        0
  5609  1200-71-40      1   64   61  -0.080  -0.420        0
  5610  1198-71-48      1   64   62   0.110  -0.250        0
  5611  1262-48-320     3   62   61   0.310  -0.460        0
  5612  1262-56-10      3   62   61   0.310  -0.460        0
  5613  1262-60-362     3   62   61   0.310  -0.460        0
  5614  1262-66-10      3   62   61   0.310  -0.460        0
  5615  1262-71-41      2   62   61   0.310  -0.460        0
  5616  1263-48-320     2   62   61   0.310  -0.490        0
  5617  1263-56-10      2   62   61   0.310  -0.490        0
  5618  1263-60-362     2   62   61   0.310  -0.490        0
  5619  1263-66-10      2   62   61   0.310  -0.490        0
  5620  1263-71-60      2   62   61   0.310  -0.490        0
  5621  1263-71-365     2   62   61   0.310  -0.490        0
  5622  1239-17-44     -3   63   60  -0.270  -0.140        0
  5623  1239-22-32     -3   63   60  -0.270  -0.140        0
  5624  1239-43-5      -2   63   60  -0.270  -0.140        0
  5625  1239-48-364    -2   63   60  -0.270  -0.140        0
  5626  1239-56-41     -2   63   60  -0.270  -0.140        0
  5627  1239-60-362    -2   63   60  -0.270  -0.140        0
  5628  1239-66-10     -2   63   60  -0.270  -0.140        0
  5629  1239-71-365    -3   63   60  -0.270  -0.140        0
  5630  1232-48-321     2   63   60  -0.040  -0.140        0
  5631  1232-56-27      2   63   60  -0.040  -0.140        0
  5632  1232-60-361     2   63   60  -0.040  -0.140        0
  5633  1232-66-10      2   63   60  -0.040  -0.140        0
  5634  1232-71-41      2   63   60  -0.040  -0.140        0
  5635  1241-56-27      2   63   60  -0.300   0.280        0
  5636  1241-66-10      1   63   60  -0.300   0.280        0
  5637  1241-71-40      1   63   60  -0.300   0.280        0
  5638  1270-56-30      2   62   59   0.240   0.310        0
  5639  1270-71-42      1   62   59   0.240   0.310        0
  5640  1273-43-1       2   62   59   0.200   0.010        0
  5641  1273-48-364     2   62   59   0.200   0.010        0
  5642  1273-56-32      2   62   59   0.200   0.010        0
  5643  1273-60-362     2   62   59   0.200   0.010        0
  5644  1273-65-348     2   62   59   0.200   0.010        0
  5645  1273-71-365     2   62   59   0.200   0.010        0
  5646  1256-1-365      2   62   59   0.390   0.080        0
  5647  1234-43-5      -2   63   59  -0.420   0.470        0
  5648  1234-48-364    -2   63   59  -0.420   0.470        0
  5649  1234-56-32     -2   63   59  -0.420   0.470        0
  5650  1234-60-362    -2   63   59  -0.420   0.470        0
  5651  1233-56-32      2   63   60  -0.040  -0.460        0
  5652  1233-65-337     1   63   60  -0.040  -0.460        0
  5653  1233-71-365     1   63   60  -0.040  -0.460        0
  5654  1227-17-44     -2   63   59   0.420   0.470        0
  5655  1227-22-58     -2   63   59   0.420   0.470        0
  5656  1227-31-335    -2   63   59   0.420   0.470        0
  5657  1227-43-5      -2   63   59   0.420   0.470        0
  5658  1227-48-364    -2   63   59   0.420   0.470        0
  5659  1227-56-32     -2   63   59   0.420   0.470        0
  5660  1227-61-60     -2   63   59   0.420   0.470        0
  5661  1227-71-365    -2   63   59   0.420   0.470        0
  5662  1208-1-364      2   64   59  -0.230  -0.020        0
  5663  1208-6-360      2   64   59  -0.230  -0.020        0
  5664  1208-11-360     2   64   59  -0.230  -0.020        0
  5665  1208-16-357     2   64   59  -0.230  -0.020        0
  5666  1208-21-361     2   64   59  -0.230  -0.020        0
  5667  1208-26-354     2   64   59  -0.230  -0.020        0
  5668  1208-31-362     2   64   59  -0.230  -0.020        0
  5669  1219-22-33     -3   63   60   0.390   0.190        0
  5670  1219-33-165    -2   63   60   0.390   0.190        0
  5671  1219-42-362    -2   63   60   0.390   0.190        0
  5672  1219-48-357    -2   63   60   0.390   0.190        0
  5673  1219-56-32     -2   63   60   0.390   0.190        0
  5674  1219-60-362    -2   63   60   0.390   0.190        0
  5675  1219-66-10     -2   63   60   0.390   0.190        0
  5676  1219-71-365    -3   63   60   0.390   0.190        0
  5677  1217-56-27      2   63   60   0.460   0.120        0
  5678  1217-71-365     1   63   60   0.460   0.120        0
  5679  1205-33-160    -3   64   60  -0.160   0.380        0
  5680  1205-42-362    -2   64   60  -0.160   0.380        0
  5681  1205-48-357    -2   64   60  -0.160   0.380        0
  5682  1205-56-34     -2   64   60  -0.160   0.380        0
  5683  1205-66-10     -2   64   60  -0.160   0.380        0
  5684  1231-7-66      -3   63   58   0.270   0.230        0
  5685  1231-12-57     -3   63   58   0.270   0.230        0
  5686  1231-17-4      -3   63   58   0.270   0.230        0
  5687  1231-22-32     -3   63   58   0.270   0.230        0
  5688  1231-27-10     -3   63   58   0.270   0.230        0
  5689  1231-31-335    -3   63   58   0.270   0.230        0
  5690  1231-37-335    -2   63   58   0.270   0.230        0
  5691  1179-6-115      1   64   58   0.460  -0.190        0
  5692  1168-17-47      2   65   58  -0.240  -0.030        0
  5693  1168-22-32      2   65   58  -0.240  -0.030        0
  5694  1168-36-335     2   65   58  -0.240  -0.030        0
  5695  1114-1-365      1   66   57   0.140  -0.040        0
  5696  1122-17-47      2   66   58  -0.280   0.140        0
  5697  1122-22-32      2   66   58  -0.280   0.140        0
  5698  1122-42-356     2   66   58  -0.280   0.140        0
  5699  1122-48-335     2   66   58  -0.280   0.140        0
  5700  1140-7-66      -3   65   58   0.410  -0.220        0
  5701  1140-12-57     -3   65   58   0.410  -0.220        0
  5702  1140-17-4      -3   65   58   0.410  -0.220        0
  5703  1140-22-32     -3   65   58   0.410  -0.220        0
  5704  1140-31-335    -2   65   58   0.410  -0.220        0
  5705  1140-36-345    -2   65   58   0.410  -0.220        0
  5706  1193-48-321    -2   64   60   0.190   0.350        0
  5707  1193-56-30     -2   64   60   0.190   0.350        0
  5708  1176-48-320     3   64   61   0.490  -0.420        0
  5709  1176-56-10      3   64   61   0.490  -0.420        0
  5710  1176-60-361     3   64   61   0.490  -0.420        0
  5711  1176-66-10      3   64   61   0.490  -0.420        0
  5712  1176-71-40      2   64   61   0.490  -0.420        0
  5713  1176-71-365     2   64   61   0.490  -0.420        0
  5714  1159-66-10      1   65   60  -0.120   0.380        0
  5715  1159-71-62      1   65   60  -0.120   0.380        0
  5716  1159-71-365     1   65   60  -0.120   0.380        0
  5717  1160-71-62     -2   65   60  -0.120   0.190        0
  5718  1160-71-365    -2   65   60  -0.120   0.190        0
  5719  1147-42-356     3   65   60   0.180   0.220        0
  5720  1147-48-335     3   65   60   0.180   0.220        0
  5721  1147-56-17      3   65   60   0.180   0.220        0
  5722  1141-1-274      3   65   59   0.380  -0.120        0
  5723  1141-7-176      3   65   59   0.380  -0.120        0
  5724  1141-11-311     3   65   59   0.380  -0.120        0
  5725  1141-17-44      3   65   59   0.380  -0.120        0
  5726  1141-22-30      3   65   59   0.380  -0.120        0
  5727  1141-26-349     3   65   59   0.380  -0.120        0
  5728  1141-31-362     3   65   59   0.380  -0.120        0
  5729  1141-36-356     3   65   59   0.380  -0.120        0
  5730  1141-42-362     3   65   59   0.380  -0.120        0
  5731  1141-48-364     3   65   59   0.380  -0.120        0
  5732  1141-56-32      3   65   59   0.380  -0.120        0
  5733  1141-60-362     3   65   59   0.380  -0.120        0
  5734  1141-66-1       3   65   59   0.380  -0.120        0
  5735  1141-71-365     2   65   59   0.380  -0.120        0
  5736  1121-17-44     -3   66   60  -0.240   0.120        0
  5737  1121-22-33     -3   66   60  -0.240   0.120        0
  5738  1121-31-335    -3   66   60  -0.240   0.120        0
  5739  1121-35-345    -2   66   60  -0.240   0.120        0
  5740  1121-42-356    -2   66   60  -0.240   0.120        0
  5741  1121-48-355    -2   66   60  -0.240   0.120        0
  5742  1121-56-32     -2   66   60  -0.240   0.120        0
  5743  1121-60-362    -2   66   60  -0.240   0.120        0
  5744  1121-65-348    -3   66   60  -0.240   0.120        0
  5745  1121-71-365    -3   66   60  -0.240   0.120        0
  5746  1192-71-55      2   64   62   0.260   0.010        0
  5747  1157-48-322     3   65   62  -0.050  -0.350        0
  5748  1157-56-10      3   65   62  -0.050  -0.350        0
  5749  1157-60-361     3   65   62  -0.050  -0.350        0
  5750  1157-66-10      3   65   62  -0.050  -0.350        0
  5751  1157-71-40      2   65   62  -0.050  -0.350        0
  5752  1180-48-323     2   64   61   0.420   0.100        0
  5753  1167-71-365    -2   65   61  -0.310   0.200        0
  5754  1170-71-365    -2   65   61  -0.350   0.390        0
  5755  1172-71-365     1   65   62  -0.390  -0.450        0
  5756  1163-71-365    -2   65   61  -0.240  -0.060        0
  5757  1155-71-365     1   65   61  -0.010  -0.260        0
  5758  1144-71-365    -2   65   62   0.300   0.010        0
  5759  1080-22-33      1   67   62  -0.320  -0.350        0
  5760  1080-31-335     1   67   62  -0.320  -0.350        0
  5761  1080-42-356     1   67   62  -0.320  -0.350        0
  5762  1080-48-355     1   67   62  -0.320  -0.350        0
  5763  1085-42-356    -3   67   62  -0.400  -0.280        0
  5764  1085-48-355    -3   67   62  -0.400  -0.280        0
  5765  1091-71-56      2   66   61   0.480  -0.230        0
  5766  1048-71-365    -3   67   61   0.360  -0.030        0
  5767  1012-71-365    -3   68   61   0.090  -0.190        0
  5768  1039-48-322     2   68   62  -0.480  -0.180        0
  5769  1039-56-30      2   68   62  -0.480  -0.180        0
  5770  1039-60-362     2   68   62  -0.480  -0.180        0
  5771  1039-66-13      2   68   62  -0.480  -0.180        0
  5772  1039-71-365     2   68   62  -0.480  -0.180        0
  5773  1040-71-365     1   68   62  -0.480  -0.220        0
  5774  1075-17-44     -3   67   60  -0.170  -0.010        0
  5775  1075-22-33     -3   67   60  -0.170  -0.010        0
  5776  1075-31-335    -3   67   60  -0.170  -0.010        0
  5777  1053-42-357     3   67   59   0.250  -0.340        0
  5778  1056-48-335     3   67   59   0.210  -0.340        0
  5779  1056-56-17      3   67   59   0.210  -0.340        0
  5780  1016-17-32      3   68   59  -0.020  -0.340        0
  5781  1016-31-335     3   68   59  -0.020  -0.340        0
  5782  1016-37-319     3   68   59  -0.020  -0.340        0
  5783  1011-22-33     -3   68   59   0.090  -0.020        0
  5784  1015-42-356     2   68   60  -0.020  -0.400        0
  5785  1015-48-337     2   68   60  -0.020  -0.400        0
  5786  1015-56-19      2   68   60  -0.020  -0.400        0
  5787  1015-61-53      2   68   60  -0.020  -0.400        0
  5788  1015-66-32      2   68   60  -0.020  -0.400        0
  5789  1094-1-277      1   66   58   0.410   0.230        0
  5790  1094-6-340      1   66   58   0.410   0.230        0
  5791  1094-10-27      1   66   58   0.410   0.230        0
  5792  1077-7-176     -2   67   57  -0.290   0.060        0
  5793  1063-17-46     -3   67   57   0.140   0.190        0
  5794  1063-22-33     -3   67   57   0.140   0.190        0
  5795  1034-36-335    -2   68   57  -0.410   0.260        0
  5796  1034-42-362    -2   68   57  -0.410   0.260        0
  5797  1034-48-357    -2   68   57  -0.410   0.260        0
  5798  1034-56-34     -2   68   57  -0.410   0.260        0
  5799  1034-66-1      -2   68   57  -0.410   0.260        0
  5800  1034-71-54     -2   68   57  -0.410   0.260        0
  5801  1034-71-365    -2   68   57  -0.410   0.260        0
  5802  997-17-46       2   68   57   0.210  -0.170        0
  5803  997-22-33       2   68   57   0.210  -0.170        0
  5804  1008-1-121      1   68   57   0.130   0.190        0
  5805  1049-17-46     -2   67   58   0.250  -0.450        0
  5806  1049-31-335    -2   67   58   0.250  -0.450        0
  5807  1049-36-335    -2   67   58   0.250  -0.450        0
  5808  1049-42-356    -2   67   58   0.250  -0.450        0
  5809  1049-48-334    -2   67   58   0.250  -0.450        0
  5810  1049-56-18     -2   67   58   0.250  -0.450        0
  5811  1049-61-53     -2   67   58   0.250  -0.450        0
  5812  1007-11-194     2   68   58   0.130  -0.290        0
  5813  1007-17-4       2   68   58   0.130  -0.290        0
  5814  1007-22-32      2   68   58   0.130  -0.290        0
  5815  1007-27-10      2   68   58   0.130  -0.290        0
  5816  1007-31-335     2   68   58   0.130  -0.290        0
  5817  1007-37-319     2   68   58   0.130  -0.290        0
  5818  1006-1-364      2   68   58   0.130   0.230        0
  5819  1006-7-66       2   68   58   0.130   0.230        0
  5820  1006-11-258     2   68   58   0.130   0.230        0
  5821  1006-17-44      2   68   58   0.130   0.230        0
  5822  1065-42-356     2   67   56   0.060   0.020        0
  5823  1065-48-334     2   67   56   0.060   0.020        0
  5824  1065-56-18      2   67   56   0.060   0.020        0
  5825  1065-66-24      2   67   56   0.060   0.020        0
  5826  991-22-34       2   68   56   0.360   0.020        0
  5827  991-26-279      2   68   56   0.360   0.020        0
  5828  991-31-335      2   68   56   0.360   0.020        0
  5829  991-37-319      2   68   56   0.360   0.020        0
  5830  991-42-356      2   68   56   0.360   0.020        0
  5831  991-48-334      2   68   56   0.360   0.020        0
  5832  991-66-27       2   68   56   0.360   0.020        0
  5833  976-1-365       1   69   58  -0.370  -0.030        0
  5834  963-1-365       1   69   58  -0.140  -0.060        0
  5835  964-1-365       1   69   58  -0.140  -0.320        0
  5836  960-1-365       1   69   58  -0.100   0.230        0
  5837  953-1-364       1   69   58   0.200   0.200        0
  5838  950-17-4        1   69   58   0.240   0.200        0
  5839  936-1-365       2   70   57  -0.110  -0.100        0
  5840  932-1-365       1   70   57   0.120  -0.070        0
  5841  944-42-356      2   70   58  -0.380  -0.320        0
  5842  944-48-341      2   70   58  -0.380  -0.320        0
  5843  926-1-365       1   70   58   0.200  -0.320        0
  5844  929-1-364       1   70   58   0.160  -0.320        0
  5845  929-6-340       1   70   58   0.160  -0.320        0
  5846  929-11-333      1   70   58   0.160  -0.320        0
  5847  929-16-301      1   70   58   0.160  -0.320        0
  5848  974-42-362      3   69   60  -0.370   0.450        0
  5849  974-48-336      3   69   60  -0.370   0.450        0
  5850  974-56-18       3   69   60  -0.370   0.450        0
  5851  957-1-365       1   69   60   0.090  -0.270        0
  5852  942-1-365       1   70   59  -0.380   0.440        0
  5853  937-1-364       1   70   59  -0.150  -0.310        0
  5854  943-22-32       2   70   59  -0.150  -0.240        0
  5855  943-26-279      2   70   59  -0.150  -0.240        0
  5856  943-31-335      2   70   59  -0.150  -0.240        0
  5857  943-36-335      2   70   59  -0.150  -0.240        0
  5858  943-42-351      2   70   59  -0.150  -0.240        0
  5859  943-48-336      2   70   59  -0.150  -0.240        0
  5860  862-22-33      -3   72   61   0.110   0.430        0
  5861  862-27-59      -3   72   61   0.110   0.430        0
  5862  862-31-335     -3   72   61   0.110   0.430        0
  5863  862-36-336     -3   72   61   0.110   0.430        0
  5864  862-42-351     -3   72   61   0.110   0.430        0
  5865  862-48-337     -3   72   61   0.110   0.430        0
  5866  901-1-364       1   71   60  -0.310   0.160        0
  5867  907-37-342     -2   71   60  -0.420  -0.330        0
  5868  903-1-365       1   71   60  -0.340  -0.270        0
  5869  895-42-356      3   71   60  -0.120  -0.200        0
  5870  895-48-337      3   71   60  -0.120  -0.200        0
  5871  898-1-32        2   71   59  -0.190  -0.380        0
  5872  898-17-4        2   71   59  -0.190  -0.380        0
  5873  889-22-32      -3   71   59   0.190  -0.380        0
  5874  889-26-279     -3   71   59   0.190  -0.380        0
  5875  889-31-335     -3   71   59   0.190  -0.380        0
  5876  889-36-336     -3   71   59   0.190  -0.380        0
  5877  889-42-356     -3   71   59   0.190  -0.380        0
  5878  889-48-337     -3   71   59   0.190  -0.380        0
  5879  889-61-54      -3   71   59   0.190  -0.380        0
  5880  883-42-356      1   71   59   0.230   0.340        0
  5881  621-37-343     -2   72   59   0.220   0.080        0
  5882  934-33-21       3   70   60   0.040   0.320        0
  5883  863-1-365       2   72   60   0.110   0.480        0
  5884  914-48-336      2   70   58   0.430   0.140        0
  5885  914-61-55       2   70   58   0.430   0.140        0
  5886  902-17-47      -3   71   58  -0.310   0.170        0
  5887  902-22-32      -3   71   58  -0.310   0.170        0
  5888  902-26-278     -3   71   58  -0.310   0.170        0
  5889  902-36-336     -3   71   58  -0.310   0.170        0
  5890  902-42-356     -2   71   58  -0.310   0.170        0
  5891  902-48-337     -2   71   58  -0.310   0.170        0
  5892  902-61-54      -2   71   58  -0.310   0.170        0
  5893  916-1-365       1   70   58   0.390  -0.160        0
  5894  916-7-298       1   70   58   0.390  -0.160        0
  5895  916-11-258      1   70   58   0.390  -0.160        0
  5896  916-17-32       1   70   58   0.390  -0.160        0
  5897  916-22-34       1   70   58   0.390  -0.160        0
  5898  916-26-278      1   70   58   0.390  -0.160        0
  5899  916-36-336      1   70   58   0.390  -0.160        0
  5900  916-42-362      1   70   58   0.390  -0.160        0
  5901  916-48-335      1   70   58   0.390  -0.160        0
  5902  916-61-55       1   70   58   0.390  -0.160        0
  5903  917-42-362      2   70   58   0.390  -0.290        0
  5904  917-48-335      2   70   58   0.390  -0.290        0
  5905  905-1-365       1   71   58  -0.340  -0.320        0
  5906  910-42-362     -2   71   57  -0.500   0.190        0
  5907  897-1-365       2   71   57  -0.120   0.160        0
  5908  864-1-364       1   72   58   0.150   0.430        0
  5909  865-42-356     -2   72   58   0.150   0.400        0
  5910  865-48-335     -2   72   58   0.150   0.400        0
  5911  854-1-365       1   72   58   0.420   0.230        0
  5912  856-1-365       1   72   58   0.340  -0.350        0
  5913  851-22-34      -3   73   58  -0.320   0.010        0
  5914  851-26-278     -3   73   58  -0.320   0.010        0
  5915  851-37-342     -3   73   58  -0.320   0.010        0
  5916  851-48-337     -2   73   58  -0.320   0.010        0
  5917  851-61-54      -2   73   58  -0.320   0.010        0
  5918  843-1-365       1   73   58  -0.130   0.460        0
  5919  841-1-365       1   73   58   0.100   0.460        0
  5920  836-17-4        1   73   57   0.300  -0.130        0
  5921  823-1-365       1   74   57  -0.130   0.420        0
  5922  859-48-337      1   72   59   0.220   0.180        0
  5923  842-37-342     -2   73   59   0.070   0.110        0
  5924  842-42-356     -2   73   59   0.070   0.110        0
  5925  842-48-337     -2   73   59   0.070   0.110        0
  5926  842-61-54      -2   73   59   0.070   0.110        0
  5927  831-42-351     -2   74   59  -0.360  -0.310        0
  5928  831-48-337     -2   74   59  -0.360  -0.310        0
  5929  828-42-351     -3   74   59  -0.210   0.050        0
  5930  828-48-337     -3   74   59  -0.210   0.050        0
  5931  819-1-365       1   74   60   0.100  -0.300        0
  5932  1254-71-42      2   62   74   0.250  -0.260        0
  5933  1228-37-95      1   63   74   0.220   0.050        0
  5934  1228-42-356     1   63   74   0.220   0.050        0
  5935  1228-56-20      1   63   74   0.220   0.050        0
  5936  1228-66-25      1   63   74   0.220   0.050        0
  5937  1228-71-40      1   63   74   0.220   0.050        0
  5938  1199-48-344     2   64   74  -0.090   0.350        0
  5939  1199-56-20      2   64   74  -0.090   0.350        0
  5940  1199-61-60      2   64   74  -0.090   0.350        0
  5941  1199-66-25      2   64   74  -0.090   0.350        0
  5942  1199-71-40      2   64   74  -0.090   0.350        0
  5943  1243-42-362     2   63   70  -0.350  -0.340        0
  5944  1243-56-18      2   63   70  -0.350  -0.340        0
  5945  1243-61-60      2   63   70  -0.350  -0.340        0
  5946  1243-66-27      2   63   70  -0.350  -0.340        0
  5947  1243-71-56      2   63   70  -0.350  -0.340        0
  5948  1218-71-365    -3   63   64   0.350  -0.460        0
  5949  1204-42-356    -3   64   64  -0.200  -0.360        0
  5950  1204-56-17     -3   64   64  -0.200  -0.360        0
  5951  1204-66-26     -3   64   64  -0.200  -0.360        0
  5952  1204-71-365    -3   64   64  -0.200  -0.360        0
  5953  1131-71-365     2   66   63  -0.400  -0.140        0
  5954  1112-48-320     2   66   63   0.140  -0.010        0
  5955  1112-56-25      2   66   63   0.140  -0.010        0
  5956  1112-60-362     2   66   63   0.140  -0.010        0
  5957  1112-65-348     2   66   63   0.140  -0.010        0
  5958  1112-71-60      2   66   63   0.140  -0.010        0
  5959  1112-71-365     2   66   63   0.140  -0.010        0
  5960  1118-71-365     1   66   64  -0.010  -0.360        0
  5961  1111-71-362    -2   66   66   0.140   0.440        0
  5962  1169-71-362     1   65   67  -0.360   0.220        0
  5963  1100-48-348    -2   66   73   0.280  -0.080        0
  5964  1100-56-25     -2   66   73   0.280  -0.080        0
  5965  1100-61-56     -2   66   73   0.280  -0.080        0
  5966  1100-66-42     -2   66   73   0.280  -0.080        0
  5967  1100-71-365    -2   66   73   0.280  -0.080        0
  5968  1051-42-355    -2   67   73   0.160  -0.240        0
  5969  1051-48-365    -2   67   73   0.160  -0.240        0
  5970  1051-56-25     -2   67   73   0.160  -0.240        0
  5971  1051-61-42     -2   67   73   0.160  -0.240        0
  5972  1051-66-53     -2   67   73   0.160  -0.240        0
  5973  1051-71-365    -2   67   73   0.160  -0.240        0
  5974  1036-12-95      1   68   73  -0.490  -0.310        0
  5975  1036-26-349     1   68   73  -0.490  -0.310        0
  5976  1036-48-348     1   68   73  -0.490  -0.310        0
  5977  1036-56-25      1   68   73  -0.490  -0.310        0
  5978  1036-61-42      1   68   73  -0.490  -0.310        0
  5979  1036-66-53      1   68   73  -0.490  -0.310        0
  5980  1036-71-365     1   68   73  -0.490  -0.310        0
  5981  1025-56-27      1   68   72  -0.300  -0.380        0
  5982  1025-66-59      1   68   72  -0.300  -0.380        0
  5983  1054-66-59      1   67   71   0.210  -0.460        0
  5984  1055-65-348     1   67   70   0.170  -0.340        0
  5985  1001-56-18      1   68   70   0.160  -0.340        0
  5986  1001-65-348     1   68   70   0.160  -0.340        0
  5987  1027-56-18      1   68   70  -0.300   0.480        0
  5988  1086-71-55      1   66   66   0.480  -0.110        0
  5989  1099-26-349    -3   66   63   0.330  -0.340        0
  5990  1099-43-4      -3   66   63   0.330  -0.340        0
  5991  1099-48-362    -3   66   63   0.330  -0.340        0
  5992  1099-56-9      -3   66   63   0.330  -0.340        0
  5993  1042-48-355     2   67   63   0.480  -0.300        0
  5994  1042-56-25      2   67   63   0.480  -0.300        0
  5995  1042-60-362     2   67   63   0.480  -0.300        0
  5996  1042-65-348     2   67   63   0.480  -0.300        0
  5997  1042-71-365     2   67   63   0.480  -0.300        0
  5998  952-56-33       1   69   70   0.200  -0.330        0
  5999  952-65-348      1   69   70   0.200  -0.330        0
  6000  949-56-27       2   69   73   0.230  -0.400        0
  6001  993-56-27       1   68   71   0.280  -0.360        0
  6002  956-56-29       2   69   71   0.120  -0.160        0
  6003  886-71-355     -2   71   74   0.140   0.420        0
  6004  886-71-362     -2   71   74   0.140   0.420        0
  6005  913-42-355      1   70   73   0.420   0.440        0
  6006  913-48-334      1   70   73   0.420   0.440        0
  6007  913-56-18       1   70   73   0.420   0.440        0
  6008  913-61-53       1   70   73   0.420   0.440        0
  6009  913-66-32       1   70   73   0.420   0.440        0
  6010  874-71-61       2   72   73  -0.290  -0.240        0
  6011  933-48-338      1   70   69   0.040  -0.280        0
  6012  933-56-18       1   70   69   0.040  -0.280        0
  6013  933-61-53       1   70   69   0.040  -0.280        0
  6014  933-66-32       1   70   69   0.040  -0.280        0
  6015  887-26-285     -2   71   69   0.220  -0.310        0
  6016  887-31-335     -2   71   69   0.220  -0.310        0
  6017  887-37-1       -2   71   69   0.220  -0.310        0
  6018  887-42-357     -2   71   69   0.220  -0.310        0
  6019  877-42-352      1   72   69  -0.350  -0.310        0
  6020  877-48-338      1   72   69  -0.350  -0.310        0
  6021  877-61-53       1   72   69  -0.350  -0.310        0
  6022  877-66-32       1   72   69  -0.350  -0.310        0
  6023  919-42-357     -2   70   65   0.270   0.460        0
  6024  920-42-357     -2   70   65   0.270  -0.320        0
  6025  888-42-357      1   71   65   0.150   0.470        0
  6026  892-17-48      -2   71   65  -0.080  -0.350        0
  6027  892-22-37      -2   71   65  -0.080  -0.350        0
  6028  892-26-285     -2   71   65  -0.080  -0.350        0
  6029  892-31-335     -2   71   65  -0.080  -0.350        0
  6030  892-36-337     -2   71   65  -0.080  -0.350        0
  6031  878-36-335     -2   72   63  -0.310  -0.400        0
  6032  878-42-359     -2   72   63  -0.310  -0.400        0
  6033  878-71-365     -2   72   63  -0.310  -0.400        0
  6034  853-22-37       2   72   63   0.340  -0.300        0
  6035  853-26-336      2   72   63   0.340  -0.300        0
  6036  853-48-362      2   72   63   0.340  -0.300        0
  6037  853-56-9        2   72   63   0.340  -0.300        0
  6038  853-61-47       2   72   63   0.340  -0.300        0
  6039  853-65-357      2   72   63   0.340  -0.300        0
  6040  853-71-362      2   72   63   0.340  -0.300        0
  6041  844-43-4       -2   73   63  -0.090  -0.340        0
  6042  844-48-362     -2   73   63  -0.090  -0.340        0
  6043  844-56-9       -2   73   63  -0.090  -0.340        0
  6044  844-61-47      -2   73   63  -0.090  -0.340        0
  6045  844-65-357     -2   73   63  -0.090  -0.340        0
  6046  844-71-362     -2   73   63  -0.090  -0.340        0
  6047  834-16-364     -2   73   63   0.370  -0.340        0
  6048  834-26-280     -2   73   63   0.370  -0.340        0
  6049  834-43-4       -2   73   63   0.370  -0.340        0
  6050  834-56-20      -2   73   63   0.370  -0.340        0
  6051  834-60-306     -2   73   63   0.370  -0.340        0
  6052  834-65-357     -2   73   63   0.370  -0.340        0
  6053  834-71-362     -2   73   63   0.370  -0.340        0
  6054  835-65-357      1   73   63   0.290  -0.340        0
  6055  835-71-362      1   73   63   0.290  -0.340        0
  6056  815-1-365       1   74   63   0.140  -0.300        0
  6057  850-17-80       2   73   69  -0.440   0.020        0
  6058  850-22-37       2   73   69  -0.440   0.020        0
  6059  850-26-285      2   73   69  -0.440   0.020        0
  6060  850-31-335      2   73   69  -0.440   0.020        0
  6061  850-38-60       2   73   69  -0.440   0.020        0
  6062  850-42-352      2   73   69  -0.440   0.020        0
  6063  850-48-338      2   73   69  -0.440   0.020        0
  6064  850-60-320      2   73   69  -0.440   0.020        0
  6065  850-65-298      2   73   69  -0.440   0.020        0
  6066  850-71-365      2   73   69  -0.440   0.020        0
  6067  1259-66-59      2   62   84   0.290  -0.310        0
  6068  1236-66-59      2   63   84  -0.290   0.110        0
  6069  1260-66-59      2   62   84   0.290  -0.470        0
  6070  1244-66-59      2   63   84  -0.410  -0.470        0
  6071  1252-35-23      2   62   81   0.260  -0.310        0
  6072  1267-71-365     2   62   81   0.250  -0.140        0
  6073  1253-37-90      2   62   79   0.370   0.030        0
  6074  1253-42-355     2   62   79   0.370   0.030        0
  6075  1253-48-349     2   62   79   0.370   0.030        0
  6076  1253-56-11      2   62   79   0.370   0.030        0
  6077  1253-61-56      2   62   79   0.370   0.030        0
  6078  1253-66-59      2   62   79   0.370   0.030        0
  6079  1253-71-365     2   62   79   0.370   0.030        0
  6080  1245-37-90      2   62   77   0.220   0.280        0
  6081  1245-42-355     2   62   77   0.220   0.280        0
  6082  1245-48-349     2   62   77   0.220   0.280        0
  6083  1245-55-357     2   62   77   0.220   0.280        0
  6084  1245-61-12      2   62   77   0.220   0.280        0
  6085  1245-66-49      2   62   77   0.220   0.280        0
  6086  1245-71-365     2   62   77   0.220   0.280        0
  6087  1250-17-86     -2   62   75   0.260   0.090        0
  6088  1250-32-69     -2   62   75   0.260   0.090        0
  6089  1250-37-95     -2   62   75   0.260   0.090        0
  6090  1250-56-19      2   62   75   0.260   0.090        0
  6091  1250-61-60      2   62   75   0.260   0.090        0
  6092  1251-12-296    -2   62   75   0.380  -0.300        0
  6093  1251-17-86     -2   62   75   0.380  -0.300        0
  6094  1251-32-69     -2   62   75   0.380  -0.300        0
  6095  1251-37-95     -2   62   75   0.380  -0.300        0
  6096  1251-42-356    -2   62   75   0.380  -0.300        0
  6097  1251-48-334    -2   62   75   0.380  -0.300        0
  6098  1251-56-19     -2   62   75   0.380  -0.300        0
  6099  1251-60-321    -2   62   75   0.380  -0.300        0
  6100  1251-65-298    -2   62   75   0.380  -0.300        0
  6101  1251-71-365    -2   62   75   0.380  -0.300        0
  6102  1226-48-344     2   63   75   0.180   0.320        0
  6103  1226-56-19      2   63   75   0.180   0.320        0
  6104  1226-61-60      2   63   75   0.180   0.320        0
  6105  1226-66-25      2   63   75   0.180   0.320        0
  6106  1226-71-42      2   63   75   0.180   0.320        0
  6107  1195-12-297    -2   64   76  -0.170   0.110        0
  6108  1195-17-60     -2   64   76  -0.170   0.110        0
  6109  1195-32-69     -2   64   76  -0.170   0.110        0
  6110  1195-37-95     -2   64   76  -0.170   0.110        0
  6111  1195-48-344     2   64   76  -0.170   0.110        0
  6112  1195-56-19      2   64   76  -0.170   0.110        0
  6113  1195-66-25      2   64   76  -0.170   0.110        0
  6114  1128-70-357     2   66   75  -0.250   0.200        0
  6115  1128-71-365     2   66   75  -0.250   0.200        0
  6116  1110-17-78      1   66   76  -0.060   0.010        0
  6117  1110-32-70      1   66   76  -0.060   0.010        0
  6118  1110-37-1       1   66   76  -0.060   0.010        0
  6119  1137-16-357     2   65   78   0.400   0.000        0
  6120  1173-66-5       2   65   84  -0.460   0.080        0
  6121  1173-71-365     2   65   84  -0.460   0.080        0
  6122  1044-16-362     2   67   82   0.270  -0.350        0
  6123  1044-32-69      2   67   82   0.270  -0.350        0
  6124  1044-37-95      2   67   82   0.270  -0.350        0
  6125  1044-42-356     2   67   82   0.270  -0.350        0
  6126  1044-48-344     2   67   82   0.270  -0.350        0
  6127  1044-56-20      2   67   82   0.270  -0.350        0
  6128  1044-61-60      2   67   82   0.270  -0.350        0
  6129  1044-66-25      2   67   82   0.270  -0.350        0
  6130  1050-71-40      2   67   82   0.300  -0.390        0
  6131  1045-31-349     2   67   79   0.310  -0.350        0
  6132  1045-37-26      2   67   79   0.310  -0.350        0
  6133  1045-42-354     2   67   79   0.310  -0.350        0
  6134  1045-48-344     2   67   79   0.310  -0.350        0
  6135  1045-56-17      2   67   79   0.310  -0.350        0
  6136  1045-60-320     2   67   79   0.310  -0.350        0
  6137  1045-65-298     2   67   79   0.310  -0.350        0
  6138  1045-71-365     2   67   79   0.310  -0.350        0
  6139  1046-31-349     2   67   79   0.310  -0.350        0
  6140  1046-42-354     2   67   79   0.310  -0.350        0
  6141  1046-48-344     2   67   79   0.310  -0.350        0
  6142  1046-56-17      2   67   79   0.310  -0.350        0
  6143  1046-60-320     2   67   79   0.310  -0.350        0
  6144  1046-65-298     2   67   79   0.310  -0.350        0
  6145  1046-71-365     2   67   79   0.310  -0.350        0
  6146  1047-31-349     2   67   79   0.310  -0.350        0
  6147  1047-42-354     2   67   79   0.310  -0.350        0
  6148  1047-48-344     2   67   79   0.310  -0.350        0
  6149  1047-56-17      2   67   79   0.310  -0.350        0
  6150  1047-60-320     2   67   79   0.310  -0.350        0
  6151  1047-65-298     2   67   79   0.310  -0.350        0
  6152  1047-71-365     2   67   79   0.310  -0.350        0
  6153  1059-32-70      2   67   78  -0.150  -0.260        0
  6154  1059-56-19      2   67   78  -0.150  -0.260        0
  6155  1059-61-54      2   67   78  -0.150  -0.260        0
  6156  1059-66-32      2   67   78  -0.150  -0.260        0
  6157  1070-36-283    -2   67   75  -0.180   0.000        0
  6158  1017-17-78      2   69   76   0.110   0.110        0
  6159  1017-31-349     2   69   76   0.110   0.110        0
  6160  1017-37-26      2   69   76   0.110   0.110        0
  6161  1017-42-355     2   69   76   0.110   0.110        0
  6162  1004-71-365     2   68   77   0.120  -0.460        0
  6163  988-2-60        1   68   76   0.420  -0.470        0
  6164  979-42-355     -2   69   75  -0.420   0.010        0
  6165  979-48-334     -2   69   75  -0.420   0.010        0
  6166  979-56-18      -2   69   75  -0.420   0.010        0
  6167  979-61-53      -2   69   75  -0.420   0.010        0
  6168  961-7-85        1   69   75  -0.150  -0.220        0
  6169  961-12-60       1   69   75  -0.150  -0.220        0
  6170  961-16-362      1   69   75  -0.150  -0.220        0
  6171  955-61-53       1   69   75   0.110  -0.220        0
  6172  955-66-31       1   69   75   0.110  -0.220        0
  6173  925-71-365      2   70   76   0.180  -0.370        0
  6174  940-71-365     -2   70   76  -0.470   0.340        0
  6175  945-71-365      2   70   76  -0.430   0.340        0
  6176  959-66-49       2   69   80  -0.120   0.280        0
  6177  959-71-365      2   69   80  -0.120   0.280        0
  6178  922-61-42       2   70   80   0.220  -0.110        0
  6179  922-66-54       2   70   80   0.220  -0.110        0
  6180  922-71-365      2   70   80   0.220  -0.110        0
  6181  978-66-59       2   69   83  -0.430  -0.410        0
  6182  978-71-365      2   69   83  -0.430  -0.410        0
  6183  977-56-17       2   69   85  -0.480  -0.130        0
  6184  977-61-53       2   69   85  -0.480  -0.130        0
  6185  977-66-32       2   69   85  -0.480  -0.130        0
  6186  973-32-70       2   69   85  -0.400   0.040        0
  6187  973-38-60       2   69   85  -0.400   0.040        0
  6188  973-56-17       2   69   85  -0.400   0.040        0
  6189  973-61-53       2   69   85  -0.400   0.040        0
  6190  954-42-354      2   69   85   0.130   0.130        0
  6191  954-48-335      2   69   85   0.130   0.130        0
  6192  870-12-60       3   72   86  -0.190  -0.340        0
  6193  870-17-78       3   72   86  -0.190  -0.340        0
  6194  870-22-89       3   72   86  -0.190  -0.340        0
  6195  870-32-70       3   72   86  -0.190  -0.340        0
  6196  870-37-1        3   72   86  -0.190  -0.340        0
  6197  870-42-354      3   72   86  -0.190  -0.340        0
  6198  869-7-171       2   72   86  -0.190  -0.340        0
  6199  869-42-354      2   72   86  -0.190  -0.340        0
  6200  869-56-18       2   72   86  -0.190  -0.340        0
  6201  869-60-320      2   72   86  -0.190  -0.340        0
  6202  869-65-299      2   72   86  -0.190  -0.340        0
  6203  869-71-365      2   72   86  -0.190  -0.340        0
  6204  915-66-53       2   70   84   0.360  -0.200        0
  6205  915-71-365      2   70   84   0.360  -0.200        0
  6206  912-66-41       2   70   82   0.400   0.170        0
  6207  912-71-365      2   70   82   0.400   0.170        0
  6208  875-2-86        2   72   82  -0.330  -0.150        0
  6209  879-61-53       2   72   82  -0.370   0.080        0
  6210  879-66-46       2   72   82  -0.370   0.080        0
  6211  879-71-365      2   72   82  -0.370   0.080        0
  6212  881-2-87        2   71   80   0.440   0.480        0
  6213  891-48-334      1   71   77   0.020  -0.330        0
  6214  891-56-18       1   71   77   0.020  -0.330        0
  6215  891-61-62       1   71   77   0.020  -0.330        0
  6216  891-66-32       1   71   77   0.020  -0.330        0
  6217  891-71-64       1   71   77   0.020  -0.330        0
  6218  876-42-355     -2   72   78  -0.370   0.170        0
  6219  876-48-334     -2   72   78  -0.370   0.170        0
  6220  876-56-19      -2   72   78  -0.370   0.170        0
  6221  876-61-62      -2   72   78  -0.370   0.170        0
  6222  876-66-32      -2   72   78  -0.370   0.170        0
  6223  866-66-32       2   72   78   0.020  -0.090        0
  6224  866-71-64       2   72   78   0.020  -0.090        0
  6225  873-33-328      2   72   78  -0.290   0.200        0
  6226  918-42-355     -2   70   76   0.340   0.440        0
  6227  906-37-28      -3   71   77  -0.430  -0.460        0
  6228  923-42-355      1   70   75   0.220  -0.020        0
  6229  923-48-334      1   70   75   0.220  -0.020        0
  6230  923-56-18       1   70   75   0.220  -0.020        0
  6231  849-42-356      1   73   75  -0.400  -0.050        0
  6232  849-56-18       1   73   75  -0.400  -0.050        0
  6233  3417-32-69     -2   74   85  -0.010   0.310        0
  6234  3417-35-23     -2   74   85  -0.010   0.310        0
  6235  3417-42-354    -2   74   85  -0.010   0.310        0
  6236  3417-48-335    -2   74   85  -0.010   0.310        0
  6237  3417-56-17     -2   74   85  -0.010   0.310        0
  6238  3417-61-53     -2   74   85  -0.010   0.310        0
  6239  1921-16-362     3   62   88   0.350   0.020        0
  6240  1229-36-319     2   63   87   0.080   0.010        0
  6241  1202-42-362     2   64   88  -0.150  -0.370        0
  6242  1202-48-336     2   64   88  -0.150  -0.370        0
  6243  1164-2-93       2   65   88  -0.310   0.380        0
  6244  1164-16-300     2   65   88  -0.310   0.380        0
  6245  1164-27-12      2   65   88  -0.310   0.380        0
  6246  1164-48-336     2   65   88  -0.310   0.380        0
  6247  1164-56-17      2   65   88  -0.310   0.380        0
  6248  1164-61-60      2   65   88  -0.310   0.380        0
  6249  1125-71-356     2   66   90  -0.240  -0.120        0
  6250  1123-71-53      2   66   90  -0.210  -0.120        0
  6251  1543-2-90       2   67   92   0.280  -0.060        0
  6252  1543-56-19      2   67   92   0.280  -0.060        0
  6253  1543-66-26      2   67   92   0.280  -0.060        0
  6254  1084-48-338     2   67   91  -0.440   0.060        0
  6255  1067-71-63      2   67   90  -0.100   0.140        0
  6256  1066-71-63      2   67   90  -0.100   0.210        0
  6257  1544-2-88       2   67   91   0.130  -0.430        0
  6258  1544-12-324     2   67   91   0.130  -0.430        0
  6259  1593-61-60      2   67   89  -0.400  -0.090        0
  6260  1593-66-26      2   67   89  -0.400  -0.090        0
  6261  1069-71-365     2   67   88  -0.210  -0.230        0
  6262  1052-56-17      2   67   88   0.210   0.350        0
  6263  1052-66-26      2   67   88   0.210   0.350        0
  6264  989-66-20       2   68   89   0.480  -0.410        0
  6265  966-22-60       2   69   88  -0.260   0.060        0
  6266  987-12-324      2   68   92   0.310   0.260        0
  6267  987-22-33       2   68   92   0.310   0.260        0
  6268  987-27-12       2   68   92   0.310   0.260        0
  6269  987-66-20       2   68   92   0.310   0.260        0
  6270  858-71-63       2   72   92   0.230   0.000        0
  6271  890-42-362     -2   71   91   0.000  -0.490        0
  6272  890-48-338     -2   71   91   0.000  -0.490        0
  6273  890-56-19      -2   71   91   0.000  -0.490        0
  6274  890-61-60      -2   71   91   0.000  -0.490        0
  6275  890-66-20      -2   71   91   0.000  -0.490        0
  6276  908-71-365      2   71   89  -0.500   0.140        0
  6277  667-17-5        2   82   14  -0.360   0.260        0
  6278  667-22-1        2   82   14  -0.360   0.260        0
  6279  667-27-14       2   82   14  -0.360   0.260        0
  6280  667-31-350      2   82   14  -0.360   0.260        0
  6281  667-37-340      2   82   14  -0.360   0.260        0
  6282  667-42-351      2   82   14  -0.360   0.260        0
  6283  667-48-348      2   82   14  -0.360   0.260        0
  6284  652-27-14       3   82   14   0.290   0.190        0
  6285  652-56-17       3   82   14   0.290   0.190        0
  6286  652-66-20       3   82   14   0.290   0.190        0
  6287  614-27-14       2   84   13  -0.300   0.040        0
  6288  613-56-17       2   84   13  -0.110   0.140        0
  6289  641-1-260       1   83   11  -0.380  -0.370        0
  6290  641-26-1        2   83   11  -0.380  -0.370        0
  6291  641-56-18       2   83   11  -0.380  -0.370        0
  6292  641-66-31       2   83   11  -0.380  -0.370        0
  6293  793-6-289      -2   75   20  -0.120  -0.210        0
  6294  793-48-348     -2   75   20  -0.120  -0.210        0
  6295  793-61-25      -2   75   20  -0.120  -0.210        0
  6296  793-65-357     -2   75   20  -0.120  -0.210        0
  6297  793-71-365     -2   75   20  -0.120  -0.210        0
  6298  762-56-18       2   76   21  -0.160  -0.400        0
  6299  762-61-61       2   76   21  -0.160  -0.400        0
  6300  762-66-34       2   76   21  -0.160  -0.400        0
  6301  758-48-348     -2   76   19   0.220  -0.260        0
  6302  758-55-353     -2   76   19   0.220  -0.260        0
  6303  758-61-25      -2   76   19   0.220  -0.260        0
  6304  758-65-362     -2   76   19   0.220  -0.260        0
  6305  758-71-365     -2   76   19   0.220  -0.260        0
  6306  766-10-104      2   76   16  -0.130   0.460        0
  6307  773-36-156      3   76   16  -0.440   0.430        0
  6308  722-8-276       2   78   17   0.200  -0.290        0
  6309  722-12-360      2   78   17   0.200  -0.290        0
  6310  722-22-3        2   78   17   0.200  -0.290        0
  6311  741-65-362      2   77   17  -0.020   0.300        0
  6312  741-71-365      2   77   17  -0.020   0.300        0
  6313  738-65-362      2   77   17   0.090   0.040        0
  6314  738-71-365      2   77   17   0.090   0.040        0
  6315  743-65-362      2   77   18  -0.100  -0.470        0
  6316  743-71-365      2   77   18  -0.100  -0.470        0
  6317  740-65-362      2   77   17   0.060   0.430        0
  6318  740-71-365      2   77   17   0.060   0.430        0
  6319  737-22-3        2   77   18   0.210  -0.240        0
  6320  737-48-348      2   77   18   0.210  -0.240        0
  6321  737-61-25       2   77   18   0.210  -0.240        0
  6322  737-65-362      2   77   18   0.210  -0.240        0
  6323  737-71-365      2   77   18   0.210  -0.240        0
  6324  723-12-180      2   78   23   0.220  -0.320        0
  6325  723-17-9        2   78   23   0.220  -0.320        0
  6326  723-22-1        2   78   23   0.220  -0.320        0
  6327  723-32-85       2   78   23   0.220  -0.320        0
  6328  748-61-61       2   77   26  -0.190   0.330        0
  6329  748-66-33       2   77   26  -0.190   0.330        0
  6330  714-56-19       2   79   26  -0.160   0.260        0
  6331  714-61-61       2   79   26  -0.160   0.260        0
  6332  715-56-17       2   78   15   0.350  -0.110        0
  6333  715-61-62       2   78   15   0.350  -0.110        0
  6334  715-66-35       2   78   15   0.350  -0.110        0
  6335  713-56-17       2   79   15  -0.270   0.110        0
  6336  713-66-35       2   79   15  -0.270   0.110        0
  6337  702-65-362      3   80   16  -0.500   0.090        0
  6338  702-71-365      3   80   16  -0.500   0.090        0
  6339  700-36-164      2   80   16  -0.310  -0.040        0
  6340  700-55-353      2   80   16  -0.310  -0.040        0
  6341  700-61-25       2   80   16  -0.310  -0.040        0
  6342  700-65-362      2   80   16  -0.310  -0.040        0
  6343  700-71-365      2   80   16  -0.310  -0.040        0
  6344  671-27-14       2   81   15   0.370   0.370        0
  6345  671-55-353      2   81   15   0.370   0.370        0
  6346  671-61-25       2   81   15   0.370   0.370        0
  6347  656-12-178      2   82   15  -0.130   0.040        0
  6348  656-56-17       2   82   15  -0.130   0.040        0
  6349  656-66-20       2   82   15  -0.130   0.040        0
  6350  656-71-365      2   82   15  -0.130   0.040        0
  6351  655-26-362      2   82   24   0.280   0.170        0
  6352  655-32-85       2   82   24   0.280   0.170        0
  6353  655-35-53       2   82   24   0.280   0.170        0
  6354  655-56-18       2   82   24   0.280   0.170        0
  6355  689-66-33       2   80   26   0.330  -0.430        0
  6356  688-71-365      2   80   25   0.370   0.340        0
  6357  682-56-18       2   81   25  -0.130  -0.110        0
  6358  636-56-18       2   83   19  -0.350  -0.250        0
  6359  636-61-62       2   83   19  -0.350  -0.250        0
  6360  636-66-20       2   83   19  -0.350  -0.250        0
  6361  648-71-365      3   82   18   0.380   0.170        0
  6362  601-48-348      2   84   19   0.250  -0.250        0
  6363  601-55-353      2   84   19   0.250  -0.250        0
  6364  601-61-34       2   84   19   0.250  -0.250        0
  6365  601-65-362      2   84   19   0.250  -0.250        0
  6366  601-71-365      2   84   19   0.250  -0.250        0
  6367  632-56-17       2   84   15  -0.290  -0.230        0
  6368  632-66-20       2   84   15  -0.290  -0.230        0
  6369  602-22-1        2   84   16   0.060   0.400        0
  6370  579-56-18       2   85   16  -0.370  -0.290        0
  6371  598-42-351      3   85   22  -0.430  -0.420        0
  6372  598-48-348      3   85   22  -0.430  -0.420        0
  6373  598-56-18       3   85   22  -0.430  -0.420        0
  6374  598-60-323      3   85   22  -0.430  -0.420        0
  6375  598-65-300      3   85   22  -0.430  -0.420        0
  6376  598-71-365      3   85   22  -0.430  -0.420        0
  6377  739-37-15       2   77   29   0.320   0.160        0
  6378  739-48-341      2   77   29   0.320   0.160        0
  6379  739-55-353      2   77   29   0.320   0.160        0
  6380  739-61-34       2   77   29   0.320   0.160        0
  6381  739-65-362      2   77   29   0.320   0.160        0
  6382  739-71-365      2   77   29   0.320   0.160        0
  6383  720-12-152      2   79   29  -0.460  -0.420        0
  6384  720-17-9        2   79   29  -0.460  -0.420        0
  6385  720-21-364      2   79   29  -0.460  -0.420        0
  6386  720-66-34       2   79   29  -0.460  -0.420        0
  6387  747-48-341      2   77   32   0.440  -0.030        0
  6388  747-55-346      2   77   32   0.440  -0.030        0
  6389  747-61-34       2   77   32   0.440  -0.030        0
  6390  747-65-362      2   77   32   0.440  -0.030        0
  6391  747-71-365      2   77   32   0.440  -0.030        0
  6392  717-27-13       2   79   60  -0.350   0.480        0
  6393  644-42-343      3   83   61  -0.480  -0.480        0
  6394  625-42-343     -2   84   61  -0.490  -0.480        0
  6395  620-42-343      3   84   60  -0.410  -0.490        0
  6396  634-35-29       3   83   56   0.320   0.440        0
  6397  634-42-322      3   83   56   0.320   0.440        0
  6398  554-42-350      3   85   56   0.460  -0.020        0
  6399  561-42-349      3   85   55   0.350   0.460        0
  6400  535-42-350      3   86   56   0.230  -0.410        0
  6401  577-22-34       3   85   58  -0.260   0.170        0
  6402  577-27-59       3   85   58  -0.260   0.170        0
  6403  577-31-339      3   85   58  -0.260   0.170        0
  6404  577-37-1        3   85   58  -0.260   0.170        0
  6405  577-42-343      3   85   58  -0.260   0.170        0
  6406  577-48-343      3   85   58  -0.260   0.170        0
  6407  577-56-16       3   85   58  -0.260   0.170        0
  6408  577-60-322      3   85   58  -0.260   0.170        0
  6409  577-65-302      3   85   58  -0.260   0.170        0
  6410  577-71-365      3   85   58  -0.260   0.170        0
  6411  581-1-365       2   85   60  -0.380   0.450        0
  6412  582-42-343     -2   85   61  -0.420  -0.480        0
  6413  582-56-16      -2   85   61  -0.420  -0.480        0
  6414  586-27-56      -2   85   60  -0.420  -0.300        0
  6415  586-37-316     -2   85   60  -0.420  -0.300        0
  6416  586-42-343     -2   85   60  -0.420  -0.300        0
  6417  586-56-16      -2   85   60  -0.420  -0.300        0
  6418  586-61-55      -2   85   60  -0.420  -0.300        0
  6419  586-66-46      -2   85   60  -0.420  -0.300        0
  6420  553-22-39      -2   85   60   0.460   0.090        0
  6421  553-26-299     -2   85   60   0.460   0.090        0
  6422  553-31-348     -2   85   60   0.460   0.090        0
  6423  553-36-21      -2   85   60   0.460   0.090        0
  6424  584-22-44       3   85   60  -0.420   0.420        0
  6425  584-27-56       3   85   60  -0.420   0.420        0
  6426  584-31-339      3   85   60  -0.420   0.420        0
  6427  584-37-1        3   85   60  -0.420   0.420        0
  6428  584-42-343      3   85   60  -0.420   0.420        0
  6429  584-56-16       3   85   60  -0.420   0.420        0
  6430  584-61-55       3   85   60  -0.420   0.420        0
  6431  584-66-46       3   85   60  -0.420   0.420        0
  6432  585-22-44       3   85   59  -0.420  -0.370        0
  6433  585-27-56       3   85   59  -0.420  -0.370        0
  6434  585-31-339      3   85   59  -0.420  -0.370        0
  6435  585-37-1        3   85   59  -0.420  -0.370        0
  6436  585-42-343      3   85   59  -0.420  -0.370        0
  6437  585-56-16       3   85   59  -0.420  -0.370        0
  6438  585-61-55       3   85   59  -0.420  -0.370        0
  6439  585-66-46       3   85   59  -0.420  -0.370        0
  6440  557-38-1       -2   85   60   0.420  -0.400        0
  6441  557-42-343     -2   85   60   0.420  -0.400        0
  6442  557-66-46      -2   85   60   0.420  -0.400        0
  6443  548-1-365       2   86   60  -0.230   0.420        0
  6444  575-17-55       3   85   62  -0.230   0.080        0
  6445  575-22-44       3   85   62  -0.230   0.080        0
  6446  575-26-299      3   85   62  -0.230   0.080        0
  6447  563-17-55      -2   85   62   0.310  -0.110        0
  6448  563-22-44      -2   85   62   0.310  -0.110        0
  6449  563-66-46      -2   85   62   0.310  -0.110        0
  6450  556-26-299      3   85   62   0.420  -0.240        0
  6451  556-31-335      3   85   62   0.420  -0.240        0
  6452  556-36-317      3   85   62   0.420  -0.240        0
  6453  556-56-10       3   85   62   0.420  -0.240        0
  6454  556-61-56       3   85   62   0.420  -0.240        0
  6455  556-66-34       3   85   62   0.420  -0.240        0
  6456  558-26-299     -2   85   62   0.390   0.470        0
  6457  558-31-317     -2   85   62   0.390   0.470        0
  6458  558-38-319     -2   85   62   0.390   0.470        0
  6459  572-1-365       2   85   61  -0.030  -0.220        0
  6460  543-1-365       1   86   61  -0.080  -0.220        0
  6461  529-48-336     -2   86   63   0.500  -0.490        0
  6462  529-56-10      -2   86   63   0.500  -0.490        0
  6463  529-61-56      -2   86   63   0.500  -0.490        0
  6464  529-66-34      -2   86   63   0.500  -0.490        0
  6465  798-1-365       1   75   62  -0.330  -0.120        0
  6466  794-1-77        1   75   61  -0.140  -0.090        0
  6467  772-3-59        1   76   62  -0.370   0.340        0
  6468  792-1-365       2   75   59  -0.060  -0.080        0
  6469  790-1-274       2   75   59  -0.440  -0.020        0
  6470  790-6-286       2   75   59  -0.440  -0.020        0
  6471  790-11-258      2   75   59  -0.440  -0.020        0
  6472  790-17-4        2   75   59  -0.440  -0.020        0
  6473  790-22-34       2   75   59  -0.440  -0.020        0
  6474  790-27-53       2   75   59  -0.440  -0.020        0
  6475  790-31-335      2   75   59  -0.440  -0.020        0
  6476  790-37-32       2   75   59  -0.440  -0.020        0
  6477  790-42-351      2   75   59  -0.440  -0.020        0
  6478  790-48-337      2   75   59  -0.440  -0.020        0
  6479  790-61-54       2   75   59  -0.440  -0.020        0
  6480  783-1-274       2   75   59   0.360   0.080        0
  6481  783-6-288       2   75   59   0.360   0.080        0
  6482  783-11-258      2   75   59   0.360   0.080        0
  6483  783-17-4        2   75   59   0.360   0.080        0
  6484  783-17-47       2   75   59   0.360   0.080        0
  6485  783-22-34       2   75   59   0.360   0.080        0
  6486  783-26-280      2   75   59   0.360   0.080        0
  6487  783-31-335      2   75   59   0.360   0.080        0
  6488  783-42-351      2   75   59   0.360   0.080        0
  6489  783-61-54       2   75   59   0.360   0.080        0
  6490  799-1-365       1   75   58  -0.330   0.360        0
  6491  774-65-357      1   75   64   0.470   0.200        0
  6492  774-71-362      1   75   64   0.470   0.200        0
  6493  751-1-365       1   77   64  -0.340  -0.360        0
  6494  746-22-38      -2   77   63  -0.340   0.220        0
  6495  746-26-280     -2   77   63  -0.340   0.220        0
  6496  746-32-41      -2   77   63  -0.340   0.220        0
  6497  746-48-362     -2   77   63  -0.340   0.220        0
  6498  746-56-9       -2   77   63  -0.340   0.220        0
  6499  746-61-47      -2   77   63  -0.340   0.220        0
  6500  746-65-357     -2   77   63  -0.340   0.220        0
  6501  746-71-362     -2   77   63  -0.340   0.220        0
  6502  745-1-55        1   77   63  -0.110   0.420        0
  6503  754-48-342      2   76   63   0.470  -0.070        0
  6504  754-56-18       2   76   63   0.470  -0.070        0
  6505  754-61-53       2   76   63   0.470  -0.070        0
  6506  754-66-32       2   76   63   0.470  -0.070        0
  6507  721-12-313      2   78   63   0.420   0.060        0
  6508  721-17-52       2   78   63   0.420   0.060        0
  6509  721-22-38       2   78   63   0.420   0.060        0
  6510  721-26-287      2   78   63   0.420   0.060        0
  6511  721-31-335      2   78   63   0.420   0.060        0
  6512  721-36-318      2   78   63   0.420   0.060        0
  6513  721-42-350      2   78   63   0.420   0.060        0
  6514  721-48-343      2   78   63   0.420   0.060        0
  6515  721-56-19       2   78   63   0.420   0.060        0
  6516  721-61-55       2   78   63   0.420   0.060        0
  6517  721-66-46       2   78   63   0.420   0.060        0
  6518  729-43-4       -2   78   64   0.080  -0.360        0
  6519  729-48-362     -2   78   64   0.080  -0.360        0
  6520  729-56-9       -2   78   64   0.080  -0.360        0
  6521  729-66-1       -2   78   64   0.080  -0.360        0
  6522  729-71-362     -2   78   64   0.080  -0.360        0
  6523  706-17-52      -2   79   65   0.380  -0.480        0
  6524  706-22-37      -2   79   65   0.380  -0.480        0
  6525  706-27-62      -2   79   65   0.380  -0.480        0
  6526  706-31-335     -2   79   65   0.380  -0.480        0
  6527  706-43-4       -2   79   65   0.380  -0.480        0
  6528  706-48-362     -2   79   65   0.380  -0.480        0
  6529  706-56-9       -2   79   65   0.380  -0.480        0
  6530  706-61-47      -2   79   65   0.380  -0.480        0
  6531  706-65-357     -2   79   65   0.380  -0.480        0
  6532  706-71-362     -2   79   65   0.380  -0.480        0
  6533  694-17-52       1   80   66  -0.050   0.380        0
  6534  694-22-38       1   80   66  -0.050   0.380        0
  6535  694-26-285      1   80   66  -0.050   0.380        0
  6536  694-31-344      1   80   66  -0.050   0.380        0
  6537  694-36-354      1   80   66  -0.050   0.380        0
  6538  694-43-4        1   80   66  -0.050   0.380        0
  6539  694-48-362      1   80   66  -0.050   0.380        0
  6540  694-56-9        1   80   66  -0.050   0.380        0
  6541  694-61-47       1   80   66  -0.050   0.380        0
  6542  694-65-357      1   80   66  -0.050   0.380        0
  6543  694-71-362      1   80   66  -0.050   0.380        0
  6544  716-1-365       1   79   64  -0.350   0.070        0
  6545  719-12-121     -2   79   63  -0.430  -0.140        0
  6546  708-8-302      -2   79   63   0.380   0.190        0
  6547  708-12-64      -2   79   63   0.380   0.190        0
  6548  708-17-3       -2   79   63   0.380   0.190        0
  6549  708-22-38      -2   79   63   0.380   0.190        0
  6550  708-26-287     -2   79   63   0.380   0.190        0
  6551  708-31-335     -2   79   63   0.380   0.190        0
  6552  708-42-350     -2   79   63   0.380   0.190        0
  6553  708-48-343     -2   79   63   0.380   0.190        0
  6554  685-1-365       1   81   64  -0.280   0.260        0
  6555  674-22-38      -2   81   64   0.410  -0.220        0
  6556  674-31-344     -2   81   64   0.410  -0.220        0
  6557  674-42-350     -2   81   64   0.410  -0.220        0
  6558  674-48-343     -2   81   64   0.410  -0.220        0
  6559  674-56-19      -2   81   64   0.410  -0.220        0
  6560  674-61-60      -2   81   64   0.410  -0.220        0
  6561  674-66-48      -2   81   64   0.410  -0.220        0
  6562  676-27-10      -2   81   64   0.290   0.400        0
  6563  687-17-3       -2   81   63  -0.440  -0.140        0
  6564  687-22-38      -2   81   63  -0.440  -0.140        0
  6565  687-27-11      -2   81   63  -0.440  -0.140        0
  6566  687-42-350     -2   81   63  -0.440  -0.140        0
  6567  687-48-343     -2   81   63  -0.440  -0.140        0
  6568  687-56-19      -2   81   63  -0.440  -0.140        0
  6569  687-61-55      -2   81   63  -0.440  -0.140        0
  6570  687-66-46      -2   81   63  -0.440  -0.140        0
  6571  686-56-19      -3   81   63  -0.400  -0.140        0
  6572  686-66-46      -3   81   63  -0.400  -0.140        0
  6573  677-17-53       2   81   63   0.140  -0.430        0
  6574  677-22-38       2   81   63   0.140  -0.430        0
  6575  677-26-299      2   81   63   0.140  -0.430        0
  6576  677-31-337      2   81   63   0.140  -0.430        0
  6577  677-37-336      2   81   63   0.140  -0.430        0
  6578  677-42-350      2   81   63   0.140  -0.430        0
  6579  677-48-343      2   81   63   0.140  -0.430        0
  6580  677-56-19       2   81   63   0.140  -0.430        0
  6581  677-61-55       2   81   63   0.140  -0.430        0
  6582  677-66-46       2   81   63   0.140  -0.430        0
  6583  675-5-102       1   81   63   0.410  -0.100        0
  6584  675-11-305      1   81   63   0.410  -0.100        0
  6585  675-27-11       1   81   63   0.410  -0.100        0
  6586  665-17-53       1   82   63  -0.130  -0.040        0
  6587  665-22-38       1   82   63  -0.130  -0.040        0
  6588  665-27-11       1   82   63  -0.130  -0.040        0
  6589  665-36-357      1   82   63  -0.130  -0.040        0
  6590  665-42-350      1   82   63  -0.130  -0.040        0
  6591  665-56-19       1   82   63  -0.130  -0.040        0
  6592  665-61-55       1   82   63  -0.130  -0.040        0
  6593  665-66-46       1   82   63  -0.130  -0.040        0
  6594  657-48-343      1   82   63   0.170  -0.200        0
  6595  649-3-294       2   82   63   0.440  -0.040        0
  6596  649-6-290       2   82   63   0.440  -0.040        0
  6597  649-11-307      2   82   63   0.440  -0.040        0
  6598  649-17-3        2   82   63   0.440  -0.040        0
  6599  649-22-38       2   82   63   0.440  -0.040        0
  6600  649-26-287      2   82   63   0.440  -0.040        0
  6601  649-31-335      2   82   63   0.440  -0.040        0
  6602  649-38-60       2   82   63   0.440  -0.040        0
  6603  649-42-350      2   82   63   0.440  -0.040        0
  6604  649-48-343      2   82   63   0.440  -0.040        0
  6605  649-56-19       2   82   63   0.440  -0.040        0
  6606  649-61-55       2   82   63   0.440  -0.040        0
  6607  651-3-294       1   82   64   0.440  -0.420        0
  6608  651-6-290       1   82   64   0.440  -0.420        0
  6609  651-11-307      1   82   64   0.440  -0.420        0
  6610  651-17-52       1   82   64   0.440  -0.420        0
  6611  651-27-11       1   82   64   0.440  -0.420        0
  6612  651-42-350      1   82   64   0.440  -0.420        0
  6613  651-48-343      1   82   64   0.440  -0.420        0
  6614  651-56-19       1   82   64   0.440  -0.420        0
  6615  651-61-60       1   82   64   0.440  -0.420        0
  6616  651-66-46       1   82   64   0.440  -0.420        0
  6617  679-17-52      -2   81   66   0.020  -0.500        0
  6618  679-22-37      -2   81   66   0.020  -0.500        0
  6619  679-26-336     -2   81   66   0.020  -0.500        0
  6620  679-48-362     -2   81   66   0.020  -0.500        0
  6621  679-56-9       -2   81   66   0.020  -0.500        0
  6622  679-61-47      -2   81   66   0.020  -0.500        0
  6623  679-65-357     -2   81   66   0.020  -0.500        0
  6624  679-71-362     -2   81   66   0.020  -0.500        0
  6625  680-17-52      -2   81   66  -0.020   0.380        0
  6626  680-22-82      -2   81   66  -0.020   0.380        0
  6627  680-27-62      -2   81   66  -0.020   0.380        0
  6628  680-31-335     -2   81   66  -0.020   0.380        0
  6629  680-39-60      -2   81   66  -0.020   0.380        0
  6630  680-43-4       -2   81   66  -0.020   0.380        0
  6631  680-48-362     -2   81   66  -0.020   0.380        0
  6632  680-56-9       -2   81   66  -0.020   0.380        0
  6633  680-61-47      -2   81   66  -0.020   0.380        0
  6634  680-65-357     -2   81   66  -0.020   0.380        0
  6635  680-71-362     -2   81   66  -0.020   0.380        0
  6636  684-17-52      -2   81   65  -0.280  -0.440        0
  6637  684-22-37      -2   81   65  -0.280  -0.440        0
  6638  684-26-349     -2   81   65  -0.280  -0.440        0
  6639  684-31-335     -2   81   65  -0.280  -0.440        0
  6640  684-48-362     -2   81   65  -0.280  -0.440        0
  6641  684-56-9       -2   81   65  -0.280  -0.440        0
  6642  684-66-1       -2   81   65  -0.280  -0.440        0
  6643  684-71-362     -2   81   65  -0.280  -0.440        0
  6644  664-1-365       1   82   65  -0.140  -0.380        0
  6645  654-12-67      -2   82   65   0.320  -0.310        0
  6646  654-17-52      -2   82   65   0.320  -0.310        0
  6647  654-22-37      -2   82   65   0.320  -0.310        0
  6648  654-26-285     -2   82   65   0.320  -0.310        0
  6649  654-31-335     -2   82   65   0.320  -0.310        0
  6650  654-38-32      -2   82   65   0.320  -0.310        0
  6651  654-42-349     -2   82   65   0.320  -0.310        0
  6652  654-48-343     -2   82   65   0.320  -0.310        0
  6653  654-56-19      -2   82   65   0.320  -0.310        0
  6654  654-61-60      -2   82   65   0.320  -0.310        0
  6655  654-66-49      -2   82   65   0.320  -0.310        0
  6656  658-32-41       2   82   67   0.130  -0.420        0
  6657  658-36-357      2   82   67   0.130  -0.420        0
  6658  658-43-4        2   82   67   0.130  -0.420        0
  6659  658-48-362      2   82   67   0.130  -0.420        0
  6660  658-56-9        2   82   67   0.130  -0.420        0
  6661  658-61-47       2   82   67   0.130  -0.420        0
  6662  658-65-357      2   82   67   0.130  -0.420        0
  6663  658-71-362      2   82   67   0.130  -0.420        0
  6664  673-35-360     -2   81   67   0.440   0.490        0
  6665  673-56-9       -2   81   67   0.440   0.490        0
  6666  673-61-47      -2   81   67   0.440   0.490        0
  6667  673-65-357     -2   81   67   0.440   0.490        0
  6668  673-70-334     -2   81   67   0.440   0.490        0
  6669  673-71-362     -2   81   67   0.440   0.490        0
  6670  653-32-41      -2   82   68   0.320  -0.050        0
  6671  653-39-32      -2   82   68   0.320  -0.050        0
  6672  653-43-4       -2   82   68   0.320  -0.050        0
  6673  653-48-362     -2   82   68   0.320  -0.050        0
  6674  653-56-9       -2   82   68   0.320  -0.050        0
  6675  653-61-47      -2   82   68   0.320  -0.050        0
  6676  653-65-357     -2   82   68   0.320  -0.050        0
  6677  653-71-362     -2   82   68   0.320  -0.050        0
  6678  642-36-352      2   83   74  -0.420   0.470        0
  6679  642-43-4        2   83   74  -0.420   0.470        0
  6680  642-48-362      2   83   74  -0.420   0.470        0
  6681  642-56-9        2   83   74  -0.420   0.470        0
  6682  642-61-47       2   83   74  -0.420   0.470        0
  6683  642-65-357      2   83   74  -0.420   0.470        0
  6684  642-71-362      2   83   74  -0.420   0.470        0
  6685  637-26-295     -2   82   73   0.470  -0.390        0
  6686  637-31-349     -2   82   73   0.470  -0.390        0
  6687  637-36-352     -2   82   73   0.470  -0.390        0
  6688  637-43-4       -2   82   73   0.470  -0.390        0
  6689  637-48-362     -2   82   73   0.470  -0.390        0
  6690  637-56-9       -2   82   73   0.470  -0.390        0
  6691  637-61-47      -2   82   73   0.470  -0.390        0
  6692  637-65-357     -2   82   73   0.470  -0.390        0
  6693  637-71-362     -2   82   73   0.470  -0.390        0
  6694  624-7-99        1   84   73  -0.460  -0.130        0
  6695  624-12-103      1   84   73  -0.460  -0.130        0
  6696  624-17-52       1   84   73  -0.460  -0.130        0
  6697  624-22-39       1   84   73  -0.460  -0.130        0
  6698  624-27-5        1   84   73  -0.460  -0.130        0
  6699  624-32-1        1   84   73  -0.460  -0.130        0
  6700  595-37-32      -3   84   73   0.380  -0.160        0
  6701  595-43-4       -3   84   73   0.380  -0.160        0
  6702  595-48-362     -3   84   73   0.380  -0.160        0
  6703  595-56-9       -3   84   73   0.380  -0.160        0
  6704  595-61-47      -2   84   73   0.380  -0.160        0
  6705  595-65-357     -3   84   73   0.380  -0.160        0
  6706  595-71-362     -3   84   73   0.380  -0.160        0
  6707  604-31-323     -2   84   74   0.270   0.210        0
  6708  604-37-32      -2   84   74   0.270   0.210        0
  6709  604-43-4       -2   84   74   0.270   0.210        0
  6710  604-48-362     -2   84   74   0.270   0.210        0
  6711  604-56-9       -2   84   74   0.270   0.210        0
  6712  604-61-47      -2   84   74   0.270   0.210        0
  6713  604-65-357     -2   84   74   0.270   0.210        0
  6714  604-71-362     -2   84   74   0.270   0.210        0
  6715  596-36-352     -2   84   71   0.390  -0.470        0
  6716  596-43-4       -2   84   71   0.390  -0.470        0
  6717  596-48-362     -2   84   71   0.390  -0.470        0
  6718  596-56-9       -2   84   71   0.390  -0.470        0
  6719  596-61-47      -2   84   71   0.390  -0.470        0
  6720  596-65-357     -2   84   71   0.390  -0.470        0
  6721  596-71-362     -2   84   71   0.390  -0.470        0
  6722  609-43-4       -2   84   67   0.040  -0.390        0
  6723  609-56-9       -2   84   67   0.040  -0.390        0
  6724  609-61-47      -2   84   67   0.040  -0.390        0
  6725  609-65-357     -2   84   67   0.040  -0.390        0
  6726  609-71-362     -2   84   67   0.040  -0.390        0
  6727  639-27-10       1   83   65  -0.100   0.470        0
  6728  639-66-49       1   83   65  -0.100   0.470        0
  6729  626-27-10       1   83   66   0.470  -0.330        0
  6730  626-42-349      1   83   66   0.470  -0.330        0
  6731  626-48-343      1   83   66   0.470  -0.330        0
  6732  626-56-19       1   83   66   0.470  -0.330        0
  6733  626-61-60       1   83   66   0.470  -0.330        0
  6734  626-66-49       1   83   66   0.470  -0.330        0
  6735  635-17-52       1   83   66   0.090   0.320        0
  6736  635-22-38       1   83   66   0.090   0.320        0
  6737  635-26-280      1   83   66   0.090   0.320        0
  6738  635-42-349      1   83   66   0.090   0.320        0
  6739  635-48-343      1   83   66   0.090   0.320        0
  6740  635-56-19       1   83   66   0.090   0.320        0
  6741  635-61-60       1   83   66   0.090   0.320        0
  6742  635-66-49       1   83   66   0.090   0.320        0
  6743  629-11-307      1   83   64   0.400   0.460        0
  6744  629-16-364      1   83   64   0.400   0.460        0
  6745  629-21-332      1   83   64   0.400   0.460        0
  6746  629-26-287      1   83   64   0.400   0.460        0
  6747  629-31-335      1   83   64   0.400   0.460        0
  6748  629-37-32       1   83   64   0.400   0.460        0
  6749  629-48-343      1   83   64   0.400   0.460        0
  6750  629-56-23       1   83   64   0.400   0.460        0
  6751  629-61-60       1   83   64   0.400   0.460        0
  6752  629-66-46       1   83   64   0.400   0.460        0
  6753  628-11-307      2   83   65   0.390   0.110        0
  6754  628-17-52       2   83   65   0.390   0.110        0
  6755  628-36-356      2   83   65   0.390   0.110        0
  6756  628-42-349      2   83   65   0.390   0.110        0
  6757  628-48-343      2   83   65   0.390   0.110        0
  6758  628-56-19       2   83   65   0.390   0.110        0
  6759  628-61-60       2   83   65   0.390   0.110        0
  6760  628-66-46       2   83   65   0.390   0.110        0
  6761  630-12-310     -2   83   64   0.400  -0.420        0
  6762  630-17-3       -2   83   64   0.400  -0.420        0
  6763  630-22-38      -2   83   64   0.400  -0.420        0
  6764  630-27-11      -2   83   64   0.400  -0.420        0
  6765  630-36-357     -2   83   64   0.400  -0.420        0
  6766  630-42-350     -2   83   64   0.400  -0.420        0
  6767  630-48-343     -2   83   64   0.400  -0.420        0
  6768  630-56-19      -2   83   64   0.400  -0.420        0
  6769  630-61-60      -2   83   64   0.400  -0.420        0
  6770  630-66-46      -2   83   64   0.400  -0.420        0
  6771  631-17-3       -2   84   63  -0.490  -0.460        0
  6772  631-22-32      -2   84   63  -0.490  -0.460        0
  6773  631-26-289     -2   84   63  -0.490  -0.460        0
  6774  631-31-335     -2   84   63  -0.490  -0.460        0
  6775  631-33-335     -2   84   63  -0.490  -0.460        0
  6776  631-42-350      2   84   63  -0.490  -0.460        0
  6777  631-48-343      2   84   63  -0.490  -0.460        0
  6778  631-56-19       2   84   63  -0.490  -0.460        0
  6779  631-61-55       2   84   63  -0.490  -0.460        0
  6780  631-66-46       2   84   63  -0.490  -0.460        0
  6781  593-27-11       2   84   63   0.430  -0.400        0
  6782  593-61-55       2   84   63   0.430  -0.400        0
  6783  593-66-46       2   84   63   0.430  -0.400        0
  6784  592-1-365       2   84   63   0.430  -0.140        0
  6785  587-7-101      -3   85   63  -0.490  -0.070        0
  6786  587-11-307     -3   85   63  -0.490  -0.070        0
  6787  587-17-53      -3   85   63  -0.490  -0.070        0
  6788  587-26-287     -3   85   63  -0.490  -0.070        0
  6789  587-31-335     -3   85   63  -0.490  -0.070        0
  6790  587-38-60      -2   85   63  -0.490  -0.070        0
  6791  587-42-350     -2   85   63  -0.490  -0.070        0
  6792  587-48-343     -2   85   63  -0.490  -0.070        0
  6793  587-56-19      -2   85   63  -0.490  -0.070        0
  6794  587-61-55       3   85   63  -0.490  -0.070        0
  6795  587-66-46       3   85   63  -0.490  -0.070        0
  6796  591-11-333      2   84   63   0.430   0.130        0
  6797  591-17-53       2   84   63   0.430   0.130        0
  6798  591-42-350      2   84   63   0.430   0.130        0
  6799  597-6-79        2   84   64   0.390  -0.420        0
  6800  597-11-307      2   84   64   0.390  -0.420        0
  6801  597-17-53       2   84   64   0.390  -0.420        0
  6802  597-26-287      2   84   64   0.390  -0.420        0
  6803  597-42-350      2   84   64   0.390  -0.420        0
  6804  597-48-343      2   84   64   0.390  -0.420        0
  6805  597-56-19       2   84   64   0.390  -0.420        0
  6806  597-61-60       2   84   64   0.390  -0.420        0
  6807  597-66-46       2   84   64   0.390  -0.420        0
  6808  607-42-349      1   84   64   0.120   0.430        0
  6809  607-48-343      1   84   64   0.120   0.430        0
  6810  607-56-23       1   84   64   0.120   0.430        0
  6811  607-61-60       1   84   64   0.120   0.430        0
  6812  607-66-46       1   84   64   0.120   0.430        0
  6813  568-48-343     -2   85   64   0.040   0.360        0
  6814  568-56-10      -2   85   64   0.040   0.360        0
  6815  568-61-61      -2   85   64   0.040   0.360        0
  6816  560-1-358      -2   85   64   0.270  -0.030        0
  6817  560-6-340      -2   85   64   0.270  -0.030        0
  6818  560-10-349     -2   85   64   0.270  -0.030        0
  6819  545-38-6       -3   86   63  -0.420  -0.270        0
  6820  545-42-356     -3   86   63  -0.420  -0.270        0
  6821  538-1-365      -2   86   63   0.110   0.390        0
  6822  517-7-49        2   86   63   0.150  -0.130        0
  6823  574-56-24       2   85   66  -0.150  -0.200        0
  6824  574-61-61       2   85   66  -0.150  -0.200        0
  6825  574-66-33       2   85   66  -0.150  -0.200        0
  6826  580-1-365       1   85   66  -0.340  -0.170        0
  6827  555-8-357       1   85   65   0.420   0.470        0
  6828  555-12-67       1   85   65   0.420   0.470        0
  6829  555-27-10       1   85   65   0.420   0.470        0
  6830  555-31-335      1   85   65   0.420   0.470        0
  6831  555-38-60       1   85   65   0.420   0.470        0
  6832  555-56-24       1   85   65   0.420   0.470        0
  6833  555-61-60       1   85   65   0.420   0.470        0
  6834  555-66-33       1   85   65   0.420   0.470        0
  6835  547-1-365       1   86   65  -0.230   0.280        0
  6836  546-27-10       2   86   65  -0.160   0.080        0
  6837  539-56-10       2   86   65   0.070   0.340        0
  6838  539-61-60       2   86   65   0.070   0.340        0
  6839  539-66-33       2   86   65   0.070   0.340        0
  6840  573-48-362      2   85   68   0.340  -0.370        0
  6841  573-56-9        2   85   68   0.340  -0.370        0
  6842  573-71-362      2   85   68   0.340  -0.370        0
  6843  808-48-335      1   74   73   0.280   0.250        0
  6844  808-66-33       1   74   73   0.280   0.250        0
  6845  808-71-61       1   74   73   0.280   0.250        0
  6846  807-26-349      2   74   67   0.330   0.420        0
  6847  807-43-4        2   74   67   0.330   0.420        0
  6848  807-48-341      2   74   67   0.330   0.420        0
  6849  805-56-9        1   74   67   0.360   0.450        0
  6850  807-56-9        2   74   67   0.330   0.420        0
  6851  807-61-47       2   74   67   0.330   0.420        0
  6852  805-65-357      1   74   67   0.360   0.450        0
  6853  807-65-357      2   74   67   0.330   0.420        0
  6854  805-71-362      1   74   67   0.360   0.450        0
  6855  807-71-362      2   74   67   0.330   0.420        0
  6856  810-43-4        2   74   63   0.250  -0.200        0
  6857  810-48-362      2   74   63   0.250  -0.200        0
  6858  810-61-47       2   74   63   0.250  -0.200        0
  6859  810-65-357      2   74   63   0.250  -0.200        0
  6860  810-71-362      2   74   63   0.250  -0.200        0
  6861  767-48-335      1   76   73  -0.190  -0.490        0
  6862  761-31-335      1   76   65  -0.260   0.080        0
  6863  761-37-320      1   76   65  -0.260   0.080        0
  6864  761-42-355      1   76   65  -0.260   0.080        0
  6865  761-48-342      1   76   65  -0.260   0.080        0
  6866  761-56-18       1   76   65  -0.260   0.080        0
  6867  761-61-54       1   76   65  -0.260   0.080        0
  6868  761-66-33       1   76   65  -0.260   0.080        0
  6869  763-42-355      1   76   66   0.090   0.090        0
  6870  763-48-342      1   76   66   0.090   0.090        0
  6871  763-56-18       1   76   66   0.090   0.090        0
  6872  763-61-56       1   76   66   0.090   0.090        0
  6873  763-66-33       1   76   66   0.090   0.090        0
  6874  802-56-9        2   75   64  -0.480  -0.230        0
  6875  802-61-47       2   75   64  -0.480  -0.230        0
  6876  802-65-357      2   75   64  -0.480  -0.230        0
  6877  802-71-362      2   75   64  -0.480  -0.230        0
  6878  781-61-54       1   75   63   0.400   0.380        0
  6879  781-66-33       1   75   63   0.400   0.380        0
  6880  775-56-27       1   75   63   0.440   0.380        0
  6881  775-61-54       1   75   63   0.440   0.380        0
  6882  775-66-33       1   75   63   0.440   0.380        0
  6883  786-66-33       2   75   63   0.320   0.380        0
  6884  782-26-336      2   75   63   0.440  -0.110        0
  6885  782-31-335      2   75   63   0.440  -0.110        0
  6886  782-43-4        2   75   63   0.440  -0.110        0
  6887  782-48-362      2   75   63   0.440  -0.110        0
  6888  782-56-9        2   75   63   0.440  -0.110        0
  6889  782-61-47       2   75   63   0.440  -0.110        0
  6890  782-65-357      2   75   63   0.440  -0.110        0
  6891  782-71-362      2   75   63   0.440  -0.110        0
  6892  755-27-12       1   76   63   0.430  -0.070        0
  6893  755-31-348      1   76   63   0.430  -0.070        0
  6894  755-37-26       1   76   63   0.430  -0.070        0
  6895  755-42-357      1   76   63   0.430  -0.070        0
  6896  755-48-342      1   76   63   0.430  -0.070        0
  6897  755-56-18       1   76   63   0.430  -0.070        0
  6898  755-60-320      1   76   63   0.430  -0.070        0
  6899  755-65-298      1   76   63   0.430  -0.070        0
  6900  755-71-365      1   76   63   0.430  -0.070        0
  6901  776-42-354     -2   75   86   0.290  -0.360        0
  6902  776-48-335     -2   75   86   0.290  -0.360        0
  6903  776-56-17      -2   75   86   0.290  -0.360        0
  6904  776-61-53      -2   75   86   0.290  -0.360        0
  6905  785-32-62       2   75   80   0.460   0.260        0
  6906  785-37-32       2   75   80   0.460   0.260        0
  6907  785-48-334      2   75   80   0.460   0.260        0
  6908  785-56-19       2   75   80   0.460   0.260        0
  6909  785-66-33       2   75   80   0.460   0.260        0
  6910  784-32-62       2   75   80   0.490   0.360        0
  6911  784-66-33       2   75   80   0.490   0.360        0
  6912  777-32-6        1   75   77   0.270  -0.450        0
  6913  777-37-32       1   75   77   0.270  -0.450        0
  6914  777-42-355      1   75   77   0.270  -0.450        0
  6915  777-48-334      1   75   77   0.270  -0.450        0
  6916  777-56-18       1   75   77   0.270  -0.450        0
  6917  778-42-355      2   75   77   0.270  -0.450        0
  6918  778-48-334      2   75   77   0.270  -0.450        0
  6919  778-56-18       2   75   77   0.270  -0.450        0
  6920  778-60-321      2   75   77   0.270  -0.450        0
  6921  778-65-299      2   75   77   0.270  -0.450        0
  6922  778-71-365      2   75   77   0.270  -0.450        0
  6923  779-42-355      2   75   77   0.270  -0.450        0
  6924  779-48-334      2   75   77   0.270  -0.450        0
  6925  779-56-18       2   75   77   0.270  -0.450        0
  6926  779-60-321      2   75   77   0.270  -0.450        0
  6927  779-65-299      2   75   77   0.270  -0.450        0
  6928  779-71-365      2   75   77   0.270  -0.450        0
  6929  801-36-310      2   74   75   0.390  -0.350        0
  6930  797-65-356      2   75   75  -0.340  -0.280        0
  6931  797-71-362      2   75   75  -0.340  -0.280        0
  6932  768-42-355      1   76   75  -0.230  -0.440        0
  6933  768-48-335      1   76   75  -0.230  -0.440        0
  6934  732-36-316     -3   78   77  -0.160  -0.390        0
  6935  765-32-6        2   76   79   0.030  -0.430        0
  6936  765-42-355      2   76   79   0.030  -0.430        0
  6937  765-48-348      2   76   79   0.030  -0.430        0
  6938  765-56-11       2   76   79   0.030  -0.430        0
  6939  765-61-48       2   76   79   0.030  -0.430        0
  6940  765-65-356      2   76   79   0.030  -0.430        0
  6941  765-71-362      2   76   79   0.030  -0.430        0
  6942  718-37-32      -2   79   84  -0.450  -0.470        0
  6943  718-48-334     -2   79   84  -0.450  -0.470        0
  6944  718-56-16      -2   79   84  -0.450  -0.470        0
  6945  718-61-53      -2   79   84  -0.450  -0.470        0
  6946  718-66-32      -2   79   84  -0.450  -0.470        0
  6947  718-71-60      -2   79   84  -0.450  -0.470        0
  6948  728-7-85        1   78   76   0.260   0.000        0
  6949  728-12-124      1   78   76   0.260   0.000        0
  6950  728-17-78       1   78   76   0.260   0.000        0
  6951  728-27-5        1   78   76   0.260   0.000        0
  6952  728-32-6        1   78   76   0.260   0.000        0
  6953  728-37-32       1   78   76   0.260   0.000        0
  6954  728-42-355      1   78   76   0.260   0.000        0
  6955  728-48-334      1   78   76   0.260   0.000        0
  6956  728-56-18       1   78   76   0.260   0.000        0
  6957  681-7-358       2   81   81  -0.070  -0.370        0
  6958  681-12-103      2   81   81  -0.070  -0.370        0
  6959  681-17-78       2   81   81  -0.070  -0.370        0
  6960  681-32-61       2   81   81  -0.070  -0.370        0
  6961  681-37-32       2   81   81  -0.070  -0.370        0
  6962  662-71-365      3   82   84  -0.080   0.280        0
  6963  616-42-355      2   84   81  -0.130  -0.330        0
  6964  616-56-16       2   84   81  -0.130  -0.330        0
  6965  825-71-62       2   74   92  -0.230  -0.090        0
  6966  608-32-62      -2   84   82   0.020   0.400        0
  6967  608-48-348     -2   84   82   0.020   0.400        0
  6968  608-56-11      -2   84   82   0.020   0.400        0
  6969  608-61-41      -2   84   82   0.020   0.400        0
  6970  608-65-355     -2   84   82   0.020   0.400        0
  6971  608-71-365     -2   84   82   0.020   0.400        0
  6972  559-8-73        2   85   85   0.320   0.460        0
  6973  559-12-60       2   85   85   0.320   0.460        0
  6974  559-17-78       2   85   85   0.320   0.460        0
  6975  559-32-62       2   85   85   0.320   0.460        0
  6976  559-36-335      2   85   85   0.320   0.460        0
  6977  806-71-62       2   74   92   0.280  -0.030        0
  6978  771-43-68       3   76   92  -0.420  -0.200        0
  6979  764-43-68       3   76   90   0.010   0.040        0
  6980  764-48-342      3   76   90   0.010   0.040        0
  6981  764-56-17       3   76   90   0.010   0.040        0
  6982  764-61-60       3   76   90   0.010   0.040        0
  6983  764-66-19       3   76   90   0.010   0.040        0
  6984  764-71-63       3   76   90   0.010   0.040        0
  6985  731-32-61       3   78   92  -0.160  -0.130        0
  6986  731-42-355      3   78   92  -0.160  -0.130        0
  6987  730-48-342      3   78   92  -0.010  -0.100        0
  6988  730-56-17       3   78   92  -0.010  -0.100        0
  6989  730-60-320      3   78   92  -0.010  -0.100        0
  6990  730-71-365      3   78   92  -0.040  -0.060        0
  6991  725-48-343      3   78   92   0.190  -0.200        0
  6992  725-56-16       3   78   92   0.190  -0.200        0
  6993  725-61-59       3   78   92   0.190  -0.200        0
  6994  725-66-19       3   78   92   0.190  -0.200        0
  6995  725-71-63       3   78   92   0.190  -0.200        0
  6996  683-7-360       3   81   91  -0.250   0.160        0
  6997  683-12-102      3   81   91  -0.250   0.160        0
  6998  683-17-78       3   81   91  -0.250   0.160        0
  6999  683-32-61       3   81   91  -0.250   0.160        0
  7000  683-37-32       3   81   91  -0.250   0.160        0
  7001  683-48-342      3   81   91  -0.250   0.160        0
  7002  528-56-10      -3   86   63   0.500  -0.460        0
  7003  528-61-56      -3   86   63   0.500  -0.460        0
  7004  528-66-34      -3   86   63   0.500  -0.460        0
  7005  532-56-10       2   86   62   0.420  -0.050        0
  7006  532-61-56       2   86   62   0.420  -0.050        0
  7007  523-42-363      3   86   62   0.500  -0.280        0
  7008  523-48-343      3   86   62   0.500  -0.280        0
  7009  523-56-10       3   86   62   0.500  -0.280        0
  7010  523-61-56       3   86   62   0.500  -0.280        0
  7011  506-31-282      3   87   62   0.450  -0.280        0
  7012  506-56-10       3   87   62   0.450  -0.280        0
  7013  506-60-321      3   87   62   0.450  -0.280        0
  7014  516-56-10      -2   87   61   0.030   0.070        0
  7015  516-61-56      -2   87   61   0.030   0.070        0
  7016  507-17-55      -3   87   61   0.450   0.100        0
  7017  507-22-40      -3   87   61   0.450   0.100        0
  7018  507-26-299     -3   87   61   0.450   0.100        0
  7019  507-31-335     -2   87   61   0.450   0.100        0
  7020  507-48-343     -2   87   61   0.450   0.100        0
  7021  507-56-10      -2   87   61   0.450   0.100        0
  7022  496-17-55       2   88   61   0.370   0.100        0
  7023  496-22-40       2   88   61   0.370   0.100        0
  7024  496-31-335      2   88   61   0.370   0.100        0
  7025  492-56-10       3   88   61   0.410   0.400        0
  7026  492-61-60       3   88   61   0.410   0.400        0
  7027  492-66-31       3   88   61   0.410   0.400        0
  7028  466-56-10       3   90   61  -0.060  -0.380        0
  7029  466-61-60       3   90   61  -0.060  -0.380        0
  7030  466-66-34       3   90   61  -0.060  -0.380        0
  7031  462-56-10       3   90   60   0.090   0.160        0
  7032  462-61-60       3   90   60   0.090   0.160        0
  7033  462-66-34       3   90   60   0.090   0.160        0
  7034  476-56-10       3   89   62   0.400  -0.010        0
  7035  476-61-60       3   89   62   0.400  -0.010        0
  7036  465-56-10      -2   90   61  -0.060  -0.350        0
  7037  465-61-60      -2   90   61  -0.060  -0.350        0
  7038  465-66-34      -2   90   61  -0.060  -0.350        0
  7039  460-1-365       1   90   62   0.280   0.280        0
  7040  458-38-7        3   91   62  -0.490  -0.440        0
  7041  458-48-336      3   91   62  -0.490  -0.440        0
  7042  458-56-10       3   91   62  -0.490  -0.440        0
  7043  458-61-60       3   91   62  -0.490  -0.440        0
  7044  458-66-54       3   91   62  -0.490  -0.440        0
  7045  458-71-34       3   91   62  -0.490  -0.440        0
  7046  440-38-6       -2   91   62   0.130   0.020        0
  7047  440-42-356     -2   91   62   0.130   0.020        0
  7048  440-48-337     -2   91   62   0.130   0.020        0
  7049  443-1-365       1   91   61  -0.100   0.430        0
  7050  439-1-358       1   91   61   0.280   0.300        0
  7051  439-4-350       1   91   61   0.280   0.300        0
  7052  449-10-89       2   91   60  -0.330   0.390        0
  7053  418-48-342      3   93   56   0.040  -0.210        0
  7054  418-56-18       3   93   56   0.040  -0.210        0
  7055  415-48-342      3   93   57   0.310  -0.490        0
  7056  415-56-18       3   93   57   0.310  -0.490        0
  7057  421-34-313      3   93   58  -0.380   0.400        0
  7058  421-48-343      3   93   58  -0.380   0.400        0
  7059  421-56-12       3   93   58  -0.380   0.400        0
  7060  421-61-60       3   93   58  -0.380   0.400        0
  7061  417-34-60       3   93   58   0.080  -0.220        0
  7062  412-6-290      -2   93   62   0.460  -0.440        0
  7063  412-10-297     -2   93   62   0.460  -0.440        0
  7064  412-17-4       -2   93   62   0.460  -0.440        0
  7065  412-27-12      -2   93   62   0.460  -0.440        0
  7066  412-38-6        2   93   62   0.460  -0.440        0
  7067  412-42-356      2   93   62   0.460  -0.440        0
  7068  412-48-336      2   93   62   0.460  -0.440        0
  7069  411-48-336     -2   93   62   0.500  -0.270        0
  7070  411-56-11      -2   93   62   0.500  -0.270        0
  7071  411-61-60      -2   93   62   0.500  -0.270        0
  7072  411-66-54      -2   93   62   0.500  -0.270        0
  7073  411-71-33      -2   93   62   0.500  -0.270        0
  7074  405-38-6       -2   94   62  -0.010   0.280        0
  7075  405-42-355     -2   94   62  -0.010   0.280        0
  7076  405-48-334     -2   94   62  -0.010   0.280        0
  7077  405-56-11      -2   94   62  -0.010   0.280        0
  7078  405-61-60      -2   94   62  -0.010   0.280        0
  7079  405-66-54      -2   94   62  -0.010   0.280        0
  7080  405-71-33       3   94   62  -0.010   0.280        0
  7081  396-17-4       -3   95   62  -0.350  -0.240        0
  7082  396-27-12      -3   95   62  -0.350  -0.240        0
  7083  396-38-6       -2   95   62  -0.350  -0.240        0
  7084  396-42-355     -2   95   62  -0.350  -0.240        0
  7085  396-48-336     -2   95   62  -0.350  -0.240        0
  7086  393-1-358       1   95   62  -0.090  -0.270        0
  7087  398-38-6       -2   94   61   0.490   0.200        0
  7088  398-42-356     -2   94   61   0.490   0.200        0
  7089  387-42-356      3   95   61   0.410  -0.420        0
  7090  387-48-336      3   95   61   0.410  -0.420        0
  7091  387-56-11       3   95   61   0.410  -0.420        0
  7092  387-61-60       3   95   61   0.410  -0.420        0
  7093  387-66-54       3   95   61   0.410  -0.420        0
  7094  387-71-33       3   95   61   0.410  -0.420        0
  7095  386-17-4        2   95   61   0.450   0.470        0
  7096  386-27-12       2   95   61   0.450   0.470        0
  7097  386-48-336      2   95   61   0.450   0.470        0
  7098  381-38-6       -2   96   61  -0.470   0.070        0
  7099  381-42-356     -2   96   61  -0.470   0.070        0
  7100  381-48-336     -2   96   61  -0.470   0.070        0
  7101  361-26-295      3   96   61   0.440  -0.060        0
  7102  361-43-14       3   96   61   0.440  -0.060        0
  7103  361-56-12       3   96   61   0.440  -0.060        0
  7104  361-61-60       3   96   61   0.440  -0.060        0
  7105  361-66-31       3   96   61   0.440  -0.060        0
  7106  365-1-365       1   96   61   0.410   0.430        0
  7107  364-42-356      3   96   62   0.410   0.020        0
  7108  363-1-365       1   96   62   0.410   0.480        0
  7109  391-56-12      -2   95   59   0.070  -0.370        0
  7110  391-61-60      -2   95   59   0.070  -0.370        0
  7111  372-43-14       3   96   59  -0.050   0.440        0
  7112  372-56-12       3   96   59  -0.050   0.440        0
  7113  372-61-60       3   96   59  -0.050   0.440        0
  7114  375-56-19       3   96   58  -0.210  -0.480        0
  7115  358-56-19       3   97   58  -0.330  -0.450        0
  7116  350-56-19       3   98   58  -0.480  -0.450        0
  7117  343-56-19       3   98   58   0.130  -0.450        0
  7118  345-43-6        3   98   58  -0.030  -0.030        0
  7119  356-56-12       3   97   60  -0.020  -0.130        0
  7120  356-61-60       3   97   60  -0.020  -0.130        0
  7121  352-17-4        2   97   60   0.360  -0.040        0
  7122  352-22-51       2   97   60   0.360  -0.040        0
  7123  352-27-14       2   97   60   0.360  -0.040        0
  7124  342-37-342      3   98   60   0.400  -0.260        0
  7125  342-43-14       3   98   60   0.400  -0.260        0
  7126  349-27-13       1   98   63  -0.410  -0.460        0
  7127  348-56-11      -2   98   63  -0.370  -0.460        0
  7128  348-61-54      -2   98   63  -0.370  -0.460        0
  7129  348-66-35      -2   98   63  -0.370  -0.460        0
  7130  351-3-56       -2   97   61   0.400  -0.250        0
  7131  351-22-46      -2   97   61   0.400  -0.250        0
  7132  351-27-62      -2   97   61   0.400  -0.250        0
  7133  351-37-342      2   97   61   0.400  -0.250        0
  7134  351-43-14       2   97   61   0.400  -0.250        0
  7135  351-48-337      2   97   61   0.400  -0.250        0
  7136  351-56-11       2   97   61   0.400  -0.250        0
  7137  351-61-54       2   97   61   0.400  -0.250        0
  7138  351-66-35       2   97   61   0.400  -0.250        0
  7139  346-17-4        1   98   61  -0.140  -0.380        0
  7140  346-27-14       1   98   61  -0.140  -0.380        0
  7141  347-11-304     -2   98   61  -0.220  -0.320        0
  7142  347-17-59      -2   98   61  -0.220  -0.320        0
  7143  347-22-46      -2   98   61  -0.220  -0.320        0
  7144  347-27-14      -2   98   61  -0.220  -0.320        0
  7145  347-31-335     -2   98   61  -0.220  -0.320        0
  7146  347-56-11       2   98   61  -0.220  -0.320        0
  7147  347-61-54       2   98   61  -0.220  -0.320        0
  7148  347-66-35       2   98   61  -0.220  -0.320        0
  7149  341-17-4        2   98   62   0.430   0.120        0
  7150  524-37-354      3   87   73  -0.480   0.500        0
  7151  524-43-4        3   87   73  -0.480   0.500        0
  7152  524-48-335      3   87   73  -0.480   0.500        0
  7153  524-56-9        3   87   73  -0.480   0.500        0
  7154  524-61-47       3   87   73  -0.480   0.500        0
  7155  524-65-357      3   87   73  -0.480   0.500        0
  7156  524-71-362      3   87   73  -0.480   0.500        0
  7157  3418-43-4      -2   87   71  -0.470   0.470        0
  7158  3418-48-362    -2   87   71  -0.470   0.470        0
  7159  3418-56-9      -2   87   71  -0.470   0.470        0
  7160  3418-65-357    -2   87   71  -0.470   0.470        0
  7161  3418-71-362    -2   87   71  -0.470   0.470        0
  7162  525-35-347      2   87   69  -0.470   0.450        0
  7163  525-56-9        2   87   69  -0.470   0.450        0
  7164  525-71-362      2   87   69  -0.470   0.450        0
  7165  514-31-335     -2   87   68   0.070  -0.140        0
  7166  514-36-360     -2   87   68   0.070  -0.140        0
  7167  514-43-4       -2   87   68   0.070  -0.140        0
  7168  514-48-362     -2   87   68   0.070  -0.140        0
  7169  514-56-9       -2   87   68   0.070  -0.140        0
  7170  514-61-47      -2   87   68   0.070  -0.140        0
  7171  514-65-357     -2   87   68   0.070  -0.140        0
  7172  514-71-362     -2   87   68   0.070  -0.140        0
  7173  513-32-41      -2   87   67   0.140  -0.320        0
  7174  513-39-60      -2   87   67   0.140  -0.320        0
  7175  513-43-4       -2   87   67   0.140  -0.320        0
  7176  513-48-362     -2   87   67   0.140  -0.320        0
  7177  513-56-9       -2   87   67   0.140  -0.320        0
  7178  513-61-47      -2   87   67   0.140  -0.320        0
  7179  513-65-357     -2   87   67   0.140  -0.320        0
  7180  513-71-362     -2   87   67   0.140  -0.320        0
  7181  526-11-307      1   87   66  -0.390  -0.200        0
  7182  526-17-53       1   87   66  -0.390  -0.200        0
  7183  526-22-38       1   87   66  -0.390  -0.200        0
  7184  487-17-4       -2   89   65  -0.480   0.380        0
  7185  487-27-10      -2   89   65  -0.480   0.380        0
  7186  487-38-6       -2   89   65  -0.480   0.380        0
  7187  487-42-356     -2   89   65  -0.480   0.380        0
  7188  494-42-355     -2   88   65   0.180   0.440        0
  7189  494-48-334     -2   88   65   0.180   0.440        0
  7190  494-56-10      -2   88   65   0.180   0.440        0
  7191  494-61-60      -2   88   65   0.180   0.440        0
  7192  494-66-49      -2   88   65   0.180   0.440        0
  7193  494-71-33      -2   88   65   0.180   0.440        0
  7194  530-38-6       -2   86   64   0.490  -0.030        0
  7195  530-48-334     -2   86   64   0.490  -0.030        0
  7196  530-56-10      -2   86   64   0.490  -0.030        0
  7197  530-61-60      -2   86   64   0.490  -0.030        0
  7198  530-66-49      -2   86   64   0.490  -0.030        0
  7199  530-71-33      -2   86   64   0.490  -0.030        0
  7200  509-38-6       -2   87   64   0.490  -0.030        0
  7201  509-42-355     -2   87   64   0.490  -0.030        0
  7202  509-48-334     -2   87   64   0.490  -0.030        0
  7203  509-56-10      -2   87   64   0.490  -0.030        0
  7204  509-61-60      -2   87   64   0.490  -0.030        0
  7205  509-66-49      -2   87   64   0.490  -0.030        0
  7206  509-71-33      -2   87   64   0.490  -0.030        0
  7207  518-17-3        2   87   63  -0.080  -0.400        0
  7208  518-27-11       2   87   63  -0.080  -0.400        0
  7209  518-42-355      2   87   63  -0.080  -0.400        0
  7210  510-1-358       1   87   63   0.380   0.350        0
  7211  495-1-358       2   88   63   0.370  -0.430        0
  7212  491-7-49        2   88   64   0.410  -0.160        0
  7213  490-7-49        1   88   64   0.480   0.370        0
  7214  490-17-4        1   88   64   0.480   0.370        0
  7215  490-27-10       1   88   64   0.480   0.370        0
  7216  481-38-7       -3   89   64   0.020  -0.020        0
  7217  481-42-355     -3   89   64   0.020  -0.020        0
  7218  481-48-334     -3   89   64   0.020  -0.020        0
  7219  481-56-10      -3   89   64   0.020  -0.020        0
  7220  481-61-60      -2   89   64   0.020  -0.020        0
  7221  481-66-49      -2   89   64   0.020  -0.020        0
  7222  481-71-33      -2   89   64   0.020  -0.020        0
  7223  473-38-7       -2   89   64   0.440   0.500        0
  7224  473-42-355     -2   89   64   0.440   0.500        0
  7225  484-38-6        3   89   63  -0.250  -0.260        0
  7226  455-22-51      -2   90   64   0.470   0.370        0
  7227  455-27-11      -2   90   64   0.470   0.370        0
  7228  455-38-7       -2   90   64   0.470   0.370        0
  7229  455-42-355     -2   90   64   0.470   0.370        0
  7230  455-48-336     -2   90   64   0.470   0.370        0
  7231  457-1-358       1   90   63   0.470   0.100        0
  7232  456-38-6        3   90   64   0.470  -0.320        0
  7233  456-42-356      3   90   64   0.470  -0.320        0
  7234  456-48-334      3   90   64   0.470  -0.320        0
  7235  456-56-10       3   90   64   0.470  -0.320        0
  7236  456-61-60       3   90   64   0.470  -0.320        0
  7237  456-66-54       3   90   64   0.470  -0.320        0
  7238  456-71-33       3   90   64   0.470  -0.320        0
  7239  454-8-253      -2   91   65  -0.490  -0.400        0
  7240  454-38-6       -2   91   65  -0.490  -0.400        0
  7241  454-42-355     -2   91   65  -0.490  -0.400        0
  7242  454-48-334     -2   91   65  -0.490  -0.400        0
  7243  454-56-10      -2   91   65  -0.490  -0.400        0
  7244  454-61-60      -2   91   65  -0.490  -0.400        0
  7245  454-66-49      -2   91   65  -0.490  -0.400        0
  7246  454-71-33      -2   91   65  -0.490  -0.400        0
  7247  483-48-334      2   89   65  -0.250  -0.050        0
  7248  475-1-365       1   89   65   0.400  -0.370        0
  7249  472-17-4       -2   89   66   0.480  -0.490        0
  7250  472-27-12      -2   89   66   0.480  -0.490        0
  7251  472-38-6       -2   89   66   0.480  -0.490        0
  7252  472-42-355     -2   89   66   0.480  -0.490        0
  7253  472-48-334     -2   89   66   0.480  -0.490        0
  7254  464-17-4        3   90   65  -0.060   0.410        0
  7255  464-27-12       3   90   65  -0.060   0.410        0
  7256  464-48-336      3   90   65  -0.060   0.410        0
  7257  442-71-61       2   91   74  -0.120   0.290        0
  7258  438-48-336      1   91   66   0.310   0.330        0
  7259  436-71-336      3   91   65   0.350   0.440        0
  7260  422-17-55       1   93   66  -0.420  -0.390        0
  7261  422-22-38       1   93   66  -0.420  -0.390        0
  7262  422-27-12       1   93   66  -0.420  -0.390        0
  7263  422-31-335      1   93   66  -0.420  -0.390        0
  7264  422-38-91       1   93   66  -0.420  -0.390        0
  7265  426-48-336      1   92   66   0.190   0.230        0
  7266  426-56-13       1   92   66   0.190   0.230        0
  7267  426-66-34       1   92   66   0.190   0.230        0
  7268  430-7-49        2   92   64  -0.420  -0.450        0
  7269  430-17-4        2   92   64  -0.420  -0.450        0
  7270  430-27-10       2   92   64  -0.420  -0.450        0
  7271  432-38-6       -2   92   64  -0.490   0.010        0
  7272  432-42-356     -2   92   64  -0.490   0.010        0
  7273  432-48-334     -2   92   64  -0.490   0.010        0
  7274  432-56-10      -2   92   64  -0.490   0.010        0
  7275  432-61-60      -2   92   64  -0.490   0.010        0
  7276  432-66-49      -2   92   64  -0.490   0.010        0
  7277  432-71-33      -2   92   64  -0.490   0.010        0
  7278  452-48-335      2   91   64  -0.450  -0.450        0
  7279  452-56-11       2   91   64  -0.450  -0.450        0
  7280  431-1-358       1   92   63  -0.450   0.160        0
  7281  431-6-340       1   92   63  -0.450   0.160        0
  7282  431-11-333      1   92   63  -0.450   0.160        0
  7283  431-36-38       2   92   63  -0.450   0.160        0
  7284  429-42-356     -2   92   64  -0.030   0.400        0
  7285  429-48-334     -2   92   64  -0.030   0.400        0
  7286  429-56-11      -2   92   64  -0.030   0.400        0
  7287  429-61-60      -2   92   64  -0.030   0.400        0
  7288  429-66-54      -2   92   64  -0.030   0.400        0
  7289  429-71-33      -2   92   64  -0.030   0.400        0
  7290  420-17-7       -2   93   64  -0.380  -0.410        0
  7291  420-27-10      -2   93   64  -0.380  -0.410        0
  7292  420-48-335      2   93   64  -0.380  -0.410        0
  7293  407-38-6       -2   94   63  -0.040  -0.200        0
  7294  407-42-355     -2   94   63  -0.040  -0.200        0
  7295  407-48-334     -2   94   63  -0.040  -0.200        0
  7296  401-38-6        2   94   64   0.420  -0.480        0
  7297  401-42-355      2   94   64   0.420  -0.480        0
  7298  401-48-335      2   94   64   0.420  -0.480        0
  7299  410-42-355      3   94   64  -0.310  -0.150        0
  7300  410-48-334      3   94   64  -0.310  -0.150        0
  7301  410-56-10       3   94   64  -0.310  -0.150        0
  7302  410-61-60       3   94   64  -0.310  -0.150        0
  7303  410-66-49       3   94   64  -0.310  -0.150        0
  7304  410-71-33       3   94   64  -0.310  -0.150        0
  7305  376-31-348      1   93   68   0.120  -0.040        0
  7306  376-37-19       1   93   68   0.120  -0.040        0
  7307  376-43-47       1   93   68   0.120  -0.040        0
  7308  376-48-343      1   93   68   0.120  -0.040        0
  7309  376-56-11       1   93   68   0.120  -0.040        0
  7310  376-60-321      1   93   68   0.120  -0.040        0
  7311  376-65-298      1   93   68   0.120  -0.040        0
  7312  414-71-365      2   93   68   0.300   0.490        0
  7313  416-34-357     -2   93   69   0.150   0.430        0
  7314  366-17-55       2   96   68   0.170   0.420        0
  7315  366-22-33       2   96   68   0.170   0.420        0
  7316  366-27-10       2   96   68   0.170   0.420        0
  7317  366-33-10       2   96   68   0.170   0.420        0
  7318  370-17-55      -2   96   65  -0.020   0.090        0
  7319  370-22-46      -2   96   65  -0.020   0.090        0
  7320  370-31-335     -2   96   65  -0.020   0.090        0
  7321  370-37-91      -2   96   65  -0.020   0.090        0
  7322  394-27-10       1   95   64  -0.090   0.370        0
  7323  389-42-355      3   95   64   0.070   0.010        0
  7324  389-48-334      3   95   64   0.070   0.010        0
  7325  389-56-10       3   95   64   0.070   0.010        0
  7326  389-61-60       3   95   64   0.070   0.010        0
  7327  389-66-48       3   95   64   0.070   0.010        0
  7328  389-71-33       3   95   64   0.070   0.010        0
  7329  382-48-334     -2   95   64   0.490   0.010        0
  7330  395-17-4       -2   95   63  -0.280  -0.330        0
  7331  395-27-13      -2   95   63  -0.280  -0.330        0
  7332  395-38-6        2   95   63  -0.280  -0.330        0
  7333  395-42-356      2   95   63  -0.280  -0.330        0
  7334  395-48-334      2   95   63  -0.280  -0.330        0
  7335  395-56-11       2   95   63  -0.280  -0.330        0
  7336  395-61-60       2   95   63  -0.280  -0.330        0
  7337  395-66-54       2   95   63  -0.280  -0.330        0
  7338  395-71-33       2   95   63  -0.280  -0.330        0
  7339  379-42-356      2   96   63  -0.440  -0.330        0
  7340  379-48-334      2   96   63  -0.440  -0.330        0
  7341  379-56-11       2   96   63  -0.440  -0.330        0
  7342  385-7-49        2   95   63   0.450   0.130        0
  7343  384-7-49        1   95   63   0.450   0.420        0
  7344  374-1-358       1   96   63  -0.130  -0.130        0
  7345  362-38-6       -2   96   63   0.440  -0.230        0
  7346  362-42-355     -2   96   63   0.440  -0.230        0
  7347  362-48-334     -2   96   63   0.440  -0.230        0
  7348  362-56-10      -2   96   63   0.440  -0.230        0
  7349  362-61-60      -2   96   63   0.440  -0.230        0
  7350  362-66-48      -2   96   63   0.440  -0.230        0
  7351  362-71-33       3   96   63   0.440  -0.230        0
  7352  360-26-313     -3   96   64   0.440  -0.480        0
  7353  360-38-6       -3   96   64   0.440  -0.480        0
  7354  371-38-6       -3   96   64  -0.020   0.040        0
  7355  371-42-355     -3   96   64  -0.020   0.040        0
  7356  355-48-342      2   97   63  -0.020   0.100        0
  7357  355-56-13       2   97   63  -0.020   0.100        0
  7358  355-61-61       2   97   63  -0.020   0.100        0
  7359  355-66-32       2   97   63  -0.020   0.100        0
  7360  353-1-365       1   97   63   0.320   0.330        0
  7361  353-8-22        1   97   63   0.320   0.330        0
  7362  353-11-304      1   97   63   0.320   0.330        0
  7363  353-61-61       1   97   63   0.320   0.330        0
  7364  353-66-32       1   97   63   0.320   0.330        0
  7365  501-27-60       3   88   84  -0.310   0.130        0
  7366  501-37-32       3   88   84  -0.310   0.130        0
  7367  501-43-53       3   88   84  -0.310   0.130        0
  7368  501-48-336      3   88   84  -0.310   0.130        0
  7369  501-56-17       3   88   84  -0.310   0.130        0
  7370  501-60-320      3   88   84  -0.310   0.130        0
  7371  501-65-299      3   88   84  -0.310   0.130        0
  7372  501-71-365      2   88   84  -0.310   0.130        0
  7373  536-61-52       1   86   75   0.180   0.450        0
  7374  536-66-18       1   86   75   0.180   0.450        0
  7375  536-71-62       1   86   75   0.180   0.450        0
  7376  540-43-50       1   86   76   0.020  -0.420        0
  7377  540-56-17       1   86   76   0.020  -0.420        0
  7378  451-37-32       3   91   85  -0.330   0.270        0
  7379  451-43-53       3   91   85  -0.330   0.270        0
  7380  451-48-336      3   91   85  -0.330   0.270        0
  7381  451-56-17       3   91   85  -0.330   0.270        0
  7382  451-61-52       3   91   85  -0.330   0.270        0
  7383  451-71-336      3   91   85  -0.330   0.270        0
  7384  419-71-61       2   93   76  -0.410   0.460        0
  7385  425-71-61       3   92   84   0.300   0.040        0
  7386  397-48-336      3   94   83   0.470   0.000        0
  7387  378-71-61       2   96   75  -0.410  -0.210        0
  7388  477-7-99        1   89   75   0.350   0.200        0
  7389  477-11-60       1   89   75   0.350   0.200        0
  7390  477-17-53       1   89   75   0.350   0.200        0
  7391  477-22-39       1   89   75   0.350   0.200        0
  7392  477-32-6        1   89   75   0.350   0.200        0
  7393  477-37-32       1   89   75   0.350   0.200        0
  7394  478-48-335      1   89   75   0.280   0.230        0
  7395  478-56-17       1   89   75   0.280   0.230        0
  7396  218-42-337      3  107   51  -0.230  -0.470        0
  7397  337-37-343      3   99   62  -0.300   0.220        0
  7398  337-43-14       3   99   62  -0.300   0.220        0
  7399  337-56-12       3   99   62  -0.300   0.220        0
  7400  337-61-61       3   99   62  -0.300   0.220        0
  7401  337-66-31       3   99   62  -0.300   0.220        0
  7402  328-56-11      -2   99   62   0.350   0.150        0
  7403  328-61-61      -2   99   62   0.350   0.150        0
  7404  328-66-32      -2   99   62   0.350   0.150        0
  7405  329-1-365       2   99   61   0.280  -0.380        0
  7406  327-1-365       1   99   61   0.430  -0.280        0
  7407  326-26-319     -3  100   61  -0.500   0.140        0
  7408  326-31-335     -3  100   61  -0.500   0.140        0
  7409  326-38-32      -3  100   61  -0.500   0.140        0
  7410  326-56-11      -3  100   61  -0.500   0.140        0
  7411  326-61-54      -3  100   61  -0.500   0.140        0
  7412  326-66-32      -3  100   61  -0.500   0.140        0
  7413  321-43-14       3  100   61  -0.190  -0.350        0
  7414  321-56-12       3  100   61  -0.190  -0.350        0
  7415  322-1-358       2  100   61  -0.110  -0.090        0
  7416  322-6-340       2  100   61  -0.110  -0.090        0
  7417  322-11-333      2  100   61  -0.110  -0.090        0
  7418  322-16-301      2  100   61  -0.110  -0.090        0
  7419  322-22-46       2  100   61  -0.110  -0.090        0
  7420  322-27-32       2  100   61  -0.110  -0.090        0
  7421  308-34-333     -3  100   61   0.460  -0.350        0
  7422  316-7-283       2  100   62   0.230  -0.440        0
  7423  316-11-333      2  100   62   0.230  -0.440        0
  7424  316-16-301      2  100   62   0.230  -0.440        0
  7425  316-22-46       2  100   62   0.230  -0.440        0
  7426  316-27-11       2  100   62   0.230  -0.440        0
  7427  316-31-335      2  100   62   0.230  -0.440        0
  7428  316-38-32       2  100   62   0.230  -0.440        0
  7429  316-48-337      2  100   62   0.230  -0.440        0
  7430  316-56-11       2  100   62   0.230  -0.440        0
  7431  316-60-321      2  100   62   0.230  -0.440        0
  7432  316-65-300      2  100   62   0.230  -0.440        0
  7433  310-1-365       1  100   61   0.380   0.340        0
  7434  310-27-49       1  100   61   0.380   0.340        0
  7435  310-56-11       1  100   61   0.380   0.340        0
  7436  310-61-54       1  100   61   0.380   0.340        0
  7437  310-66-32       1  100   61   0.380   0.340        0
  7438  324-1-365       2  100   62  -0.340  -0.340        0
  7439  307-56-11       1  100   62   0.460   0.450        0
  7440  335-1-365       1   99   60  -0.150   0.290        0
  7441  333-56-9       -2   99   60  -0.030   0.130        0
  7442  323-56-11       2  100   61  -0.300  -0.480        0
  7443  323-61-61       2  100   61  -0.300  -0.480        0
  7444  311-17-5       -3  100   60   0.310  -0.030        0
  7445  311-27-14      -3  100   60   0.310  -0.030        0
  7446  314-56-25       3  100   60   0.270   0.060        0
  7447  314-61-62       3  100   60   0.270   0.060        0
  7448  318-48-343      3  100   58   0.160  -0.260        0
  7449  302-42-348      3  101   58  -0.160   0.040        0
  7450  301-22-62       3  101   58  -0.120   0.460        0
  7451  301-27-6        3  101   58  -0.120   0.460        0
  7452  301-38-32       3  101   58  -0.120   0.460        0
  7453  295-22-62       3  101   58   0.380  -0.350        0
  7454  295-38-5        3  101   58   0.380  -0.350        0
  7455  295-56-24       3  101   58   0.380  -0.350        0
  7456  295-66-32       3  101   58   0.380  -0.350        0
  7457  281-38-5        3  102   58   0.150  -0.160        0
  7458  281-42-348      3  102   58   0.150  -0.160        0
  7459  270-22-62       3  103   58  -0.400  -0.350        0
  7460  270-38-32       3  103   58  -0.400  -0.350        0
  7461  271-38-5        3  102   58   0.450  -0.120        0
  7462  271-42-348      3  102   58   0.450  -0.120        0
  7463  271-48-337      3  102   58   0.450  -0.120        0
  7464  271-56-10       3  102   58   0.450  -0.120        0
  7465  271-61-61       3  102   58   0.450  -0.120        0
  7466  271-66-61       3  102   58   0.450  -0.120        0
  7467  290-56-25      -2  101   59   0.380   0.410        0
  7468  290-61-62      -2  101   59   0.380   0.410        0
  7469  280-17-4        1  102   59   0.150   0.340        0
  7470  280-27-14       1  102   59   0.150   0.340        0
  7471  278-7-274      -2  102   60   0.180   0.060        0
  7472  274-7-274      -2  102   61   0.180   0.210        0
  7473  274-38-7       -2  102   61   0.180   0.210        0
  7474  274-42-355     -2  102   61   0.180   0.210        0
  7475  274-48-335     -2  102   61   0.180   0.210        0
  7476  274-56-11      -2  102   61   0.180   0.210        0
  7477  279-17-5       -2  102   62   0.140  -0.040        0
  7478  279-42-355     -2  102   62   0.140  -0.040        0
  7479  282-42-355     -2  102   62   0.070  -0.040        0
  7480  282-48-335     -2  102   62   0.070  -0.040        0
  7481  282-56-11      -2  102   62   0.070  -0.040        0
  7482  282-61-60      -2  102   62   0.070  -0.040        0
  7483  282-66-48      -2  102   62   0.070  -0.040        0
  7484  265-42-355     -2  103   62   0.020   0.150        0
  7485  265-48-335     -2  103   62   0.020   0.150        0
  7486  265-56-11      -2  103   62   0.020   0.150        0
  7487  265-61-60      -2  103   62   0.020   0.150        0
  7488  265-66-48      -2  103   62   0.020   0.150        0
  7489  265-71-34      -2  103   62   0.020   0.150        0
  7490  264-38-7        2  103   62   0.020  -0.080        0
  7491  264-42-355      2  103   62   0.020  -0.080        0
  7492  264-48-335      2  103   62   0.020  -0.080        0
  7493  264-56-11       2  103   62   0.020  -0.080        0
  7494  264-61-60       2  103   62   0.020  -0.080        0
  7495  264-66-48       2  103   62   0.020  -0.080        0
  7496  264-71-34       2  103   62   0.020  -0.080        0
  7497  268-1-365       2  103   61  -0.050   0.340        0
  7498  268-38-7        2  103   61  -0.050   0.340        0
  7499  268-43-47       2  103   61  -0.050   0.340        0
  7500  268-48-335      2  103   61  -0.050   0.340        0
  7501  250-7-274      -2  104   61  -0.320  -0.020        0
  7502  250-17-5       -2  104   61  -0.320  -0.020        0
  7503  250-38-7       -2  104   61  -0.320  -0.020        0
  7504  250-42-355     -2  104   61  -0.320  -0.020        0
  7505  250-56-11      -2  104   61  -0.320  -0.020        0
  7506  250-61-60      -2  104   61  -0.320  -0.020        0
  7507  250-66-48      -2  104   61  -0.320  -0.020        0
  7508  250-71-34      -2  104   61  -0.320  -0.020        0
  7509  252-48-335     -2  104   62  -0.320  -0.300        0
  7510  256-42-355     -2  103   60   0.370   0.160        0
  7511  256-48-335     -2  103   60   0.370   0.160        0
  7512  256-56-11      -2  103   60   0.370   0.160        0
  7513  256-61-60      -2  103   60   0.370   0.160        0
  7514  256-66-48      -2  103   60   0.370   0.160        0
  7515  256-71-34      -2  103   60   0.370   0.160        0
  7516  261-17-5       -3  103   59   0.180   0.180        0
  7517  261-17-64      -3  103   59   0.180   0.180        0
  7518  261-22-41      -3  103   59   0.180   0.180        0
  7519  262-48-338      3  103   59   0.100   0.180        0
  7520  262-56-9        3  103   59   0.100   0.180        0
  7521  262-61-62       3  103   59   0.100   0.180        0
  7522  247-1-365       2  104   59   0.170   0.410        0
  7523  247-7-291       2  104   59   0.170   0.410        0
  7524  247-27-11       2  104   59   0.170   0.410        0
  7525  266-36-1        2  103   58   0.030   0.070        0
  7526  260-48-338      2  103   58   0.330  -0.220        0
  7527  259-56-9        3  103   58   0.250  -0.220        0
  7528  259-61-62       3  103   58   0.250  -0.220        0
  7529  259-66-47       3  103   58   0.250  -0.220        0
  7530  259-71-35       3  103   58   0.250  -0.220        0
  7531  269-38-4        3  103   55  -0.240  -0.290        0
  7532  269-42-337      3  103   55  -0.240  -0.290        0
  7533  269-48-337      3  103   55  -0.240  -0.290        0
  7534  269-56-10       3  103   55  -0.240  -0.290        0
  7535  269-61-61       3  103   55  -0.240  -0.290        0
  7536  269-66-61       3  103   55  -0.240  -0.290        0
  7537  257-56-10       3  104   55  -0.480  -0.160        0
  7538  257-61-61       3  104   55  -0.480  -0.160        0
  7539  257-66-61       3  104   55  -0.480  -0.160        0
  7540  254-38-4        3  104   55  -0.360  -0.290        0
  7541  254-42-337      3  104   55  -0.360  -0.290        0
  7542  253-48-337     -2  104   56  -0.400   0.440        0
  7543  253-56-10      -2  104   56  -0.400   0.440        0
  7544  253-61-61      -2  104   56  -0.400   0.440        0
  7545  253-66-61      -2  104   56  -0.400   0.440        0
  7546  248-38-5        3  104   51   0.060   0.280        0
  7547  248-42-337      3  104   51   0.060   0.280        0
  7548  248-48-337      3  104   51   0.060   0.280        0
  7549  241-48-337      3  105   56  -0.480   0.440        0
  7550  241-56-10       3  105   56  -0.480   0.440        0
  7551  241-61-61       3  105   56  -0.480   0.440        0
  7552  241-66-61       3  105   56  -0.480   0.440        0
  7553  229-48-337      3  106   57  -0.490  -0.500        0
  7554  229-56-11       3  106   57  -0.490  -0.500        0
  7555  242-38-4        3  105   55  -0.370  -0.230        0
  7556  242-42-337      3  105   55  -0.370  -0.230        0
  7557  243-56-10       3  105   55  -0.370  -0.330        0
  7558  238-56-10       3  105   55  -0.180  -0.290        0
  7559  235-56-10       3  105   55   0.050  -0.330        0
  7560  228-38-5        3  106   55  -0.490  -0.230        0
  7561  228-42-348      3  106   55  -0.490  -0.230        0
  7562  228-48-337      3  106   55  -0.490  -0.230        0
  7563  230-48-337     -2  105   55   0.470  -0.290        0
  7564  230-56-10      -2  105   55   0.470  -0.290        0
  7565  232-31-335     -3  105   58   0.320   0.040        0
  7566  232-37-361     -3  105   58   0.320   0.040        0
  7567  232-48-337     -2  105   58   0.320   0.040        0
  7568  232-56-9       -2  105   58   0.320   0.040        0
  7569  232-61-62      -2  105   58   0.320   0.040        0
  7570  232-66-47      -2  105   58   0.320   0.040        0
  7571  232-71-35      -2  105   58   0.320   0.040        0
  7572  237-17-5        3  105   60  -0.060  -0.430        0
  7573  237-27-11       3  105   60  -0.060  -0.430        0
  7574  237-37-357      3  105   60  -0.060  -0.430        0
  7575  237-42-355      3  105   60  -0.060  -0.430        0
  7576  237-48-335      3  105   60  -0.060  -0.430        0
  7577  237-56-11       3  105   60  -0.060  -0.430        0
  7578  237-61-60       3  105   60  -0.060  -0.430        0
  7579  237-66-48       3  105   60  -0.060  -0.430        0
  7580  237-71-34       3  105   60  -0.060  -0.430        0
  7581  239-1-365      -2  105   61  -0.290  -0.320        0
  7582  239-42-355     -2  105   61  -0.290  -0.320        0
  7583  240-22-1       -3  105   61  -0.290  -0.320        0
  7584  240-38-7       -3  105   61  -0.290  -0.320        0
  7585  240-48-335     -3  105   61  -0.290  -0.320        0
  7586  240-56-10      -3  105   61  -0.290  -0.320        0
  7587  240-66-48      -3  105   61  -0.290  -0.320        0
  7588  240-71-34      -3  105   61  -0.290  -0.320        0
  7589  231-48-335      3  105   61   0.320  -0.150        0
  7590  231-56-10       3  105   61   0.320  -0.150        0
  7591  233-17-5       -3  105   61   0.130  -0.320        0
  7592  233-38-7       -3  105   61   0.130  -0.320        0
  7593  233-42-355     -3  105   61   0.130  -0.320        0
  7594  234-42-355     -3  105   61   0.210  -0.320        0
  7595  234-48-335     -3  105   61   0.210  -0.320        0
  7596  234-56-10      -3  105   61   0.210  -0.320        0
  7597  234-60-322     -3  105   61   0.210  -0.320        0
  7598  234-66-48      -3  105   61   0.210  -0.320        0
  7599  234-71-34      -3  105   61   0.210  -0.320        0
  7600  213-1-310       2  107   61  -0.030  -0.410        0
  7601  213-6-310       2  107   61  -0.030  -0.410        0
  7602  213-27-11       2  107   61  -0.030  -0.410        0
  7603  213-42-355      2  107   61  -0.030  -0.410        0
  7604  216-7-291      -2  107   60  -0.300  -0.360        0
  7605  216-22-32      -2  107   60  -0.300  -0.360        0
  7606  216-27-11      -2  107   60  -0.300  -0.360        0
  7607  216-38-7       -2  107   60  -0.300  -0.360        0
  7608  216-42-355     -2  107   60  -0.300  -0.360        0
  7609  210-1-365       2  107   59   0.040   0.080        0
  7610  210-38-7        2  107   59   0.040   0.080        0
  7611  210-42-355      2  107   59   0.040   0.080        0
  7612  210-48-335      2  107   59   0.040   0.080        0
  7613  210-56-11       2  107   59   0.040   0.080        0
  7614  189-17-6       -2  108   59   0.500   0.050        0
  7615  189-22-54      -2  108   59   0.500   0.050        0
  7616  189-27-11      -2  108   59   0.500   0.050        0
  7617  189-38-7       -2  108   59   0.500   0.050        0
  7618  189-42-355     -2  108   59   0.500   0.050        0
  7619  189-48-335     -2  108   59   0.500   0.050        0
  7620  189-56-9       -2  108   59   0.500   0.050        0
  7621  189-61-60      -2  108   59   0.500   0.050        0
  7622  189-66-48      -2  108   59   0.500   0.050        0
  7623  189-71-34      -2  108   59   0.500   0.050        0
  7624  200-38-7       -2  108   60  -0.310  -0.030        0
  7625  200-42-356     -2  108   60  -0.310  -0.030        0
  7626  200-48-335     -2  108   60  -0.310  -0.030        0
  7627  200-56-9       -2  108   60  -0.310  -0.030        0
  7628  200-61-60      -2  108   60  -0.310  -0.030        0
  7629  200-66-48      -2  108   60  -0.310  -0.030        0
  7630  201-38-7       -2  107   59   0.390  -0.370        0
  7631  201-42-356     -2  107   59   0.390  -0.370        0
  7632  201-48-335     -2  107   59   0.390  -0.370        0
  7633  201-56-11      -2  107   59   0.390  -0.370        0
  7634  201-61-60      -2  107   59   0.390  -0.370        0
  7635  201-66-48      -2  107   59   0.390  -0.370        0
  7636  201-71-34      -2  107   59   0.390  -0.370        0
  7637  199-17-5        3  107   58   0.460   0.300        0
  7638  199-22-54       3  107   58   0.460   0.300        0
  7639  199-27-11       3  107   58   0.460   0.300        0
  7640  199-38-7        3  107   58   0.460   0.300        0
  7641  199-42-356      3  107   58   0.460   0.300        0
  7642  199-48-335      3  107   58   0.460   0.300        0
  7643  217-38-5        2  107   55  -0.230  -0.100        0
  7644  217-42-348      3  107   55  -0.230  -0.100        0
  7645  220-38-5       -2  107   55  -0.380  -0.190        0
  7646  220-42-348     -2  107   55  -0.380  -0.190        0
  7647  220-56-10      -2  107   55  -0.380  -0.190        0
  7648  220-61-61      -2  107   55  -0.380  -0.190        0
  7649  220-66-61      -2  107   55  -0.380  -0.190        0
  7650  204-38-5        2  108   55  -0.460  -0.260        0
  7651  204-42-348      2  108   55  -0.460  -0.260        0
  7652  202-38-5       -2  108   55  -0.380  -0.200        0
  7653  202-42-348     -2  108   55  -0.380  -0.200        0
  7654  198-39-190     -2  108   55  -0.040  -0.160        0
  7655  194-39-138     -2  108   55   0.380  -0.030        0
  7656  190-56-10       3  108   55   0.420  -0.130        0
  7657  190-61-61       3  108   55   0.420  -0.130        0
  7658  192-38-5        3  108   54   0.460  -0.240        0
  7659  192-42-337      3  108   54   0.460  -0.240        0
  7660  191-39-212     -2  108   54   0.460  -0.110        0
  7661  193-38-5       -2  108   54   0.420   0.350        0
  7662  193-42-348     -2  108   54   0.420   0.350        0
  7663  188-56-10       3  108   53   0.500  -0.350        0
  7664  188-61-61       3  108   53   0.500  -0.350        0
  7665  188-66-61       3  108   53   0.500  -0.350        0
  7666  187-56-10       3  108   54   0.500  -0.440        0
  7667  187-61-61       3  108   54   0.500  -0.440        0
  7668  187-66-62       3  108   54   0.500  -0.440        0
  7669  179-48-337      2  111   54  -0.480   0.250        0
  7670  14-1-365        2  111   58   0.250  -0.350        0
  7671  185-1-365       2  109   58   0.220   0.140        0
  7672  185-10-60       2  109   58   0.220   0.140        0
  7673  185-38-7        2  109   58   0.220   0.140        0
  7674  185-42-355      2  109   58   0.220   0.140        0
  7675  181-38-7       -2  110   58  -0.050  -0.060        0
  7676  181-48-335     -2  110   58  -0.050  -0.060        0
  7677  181-56-11      -2  110   58  -0.050  -0.060        0
  7678  181-61-60      -2  110   58  -0.050  -0.060        0
  7679  181-66-48      -2  110   58  -0.050  -0.060        0
  7680  181-71-34      -2  110   58  -0.050  -0.060        0
  7681  186-48-335      1  109   60  -0.010  -0.460        0
  7682  183-48-335      1  110   59  -0.320  -0.080        0
  7683  182-42-355     -2  110   59  -0.360  -0.110        0
  7684  182-48-335     -2  110   59  -0.360  -0.110        0
  7685  182-56-9       -2  110   59  -0.360  -0.110        0
  7686  182-61-60      -2  110   59  -0.360  -0.110        0
  7687  182-66-48      -2  110   59  -0.360  -0.110        0
  7688  182-71-34      -2  110   59  -0.360  -0.110        0
  7689  180-48-335      1  110   59   0.030   0.350        0
  7690  184-12-80       1  109   61   0.490  -0.280        0
  7691  184-17-60       1  109   61   0.490  -0.280        0
  7692  184-22-62       1  109   61   0.490  -0.280        0
  7693  184-27-6        1  109   61   0.490  -0.280        0
  7694  184-31-335      1  109   61   0.490  -0.280        0
  7695  184-37-32       1  109   61   0.490  -0.280        0
  7696  184-42-299      1  109   61   0.490  -0.280        0
  7697  184-48-337      1  109   61   0.490  -0.280        0
  7698  184-56-12       1  109   61   0.490  -0.280        0
  7699  184-66-55       1  109   61   0.490  -0.280        0
  7700  305-56-11       1  100   63   0.500   0.230        0
  7701  305-61-61       1  100   63   0.500   0.230        0
  7702  305-66-32       1  100   63   0.500   0.230        0
  7703  325-37-344      3  100   64  -0.420  -0.180        0
  7704  325-43-14       3  100   64  -0.420  -0.180        0
  7705  325-48-342      3  100   64  -0.420  -0.180        0
  7706  325-56-12       3  100   64  -0.420  -0.180        0
  7707  325-61-61       3  100   64  -0.420  -0.180        0
  7708  325-66-31       3  100   64  -0.420  -0.180        0
  7709  292-61-61       2  101   66   0.380   0.300        0
  7710  296-26-321      2  101   67   0.300  -0.440        0
  7711  296-31-335      2  101   67   0.300  -0.440        0
  7712  296-37-344      2  101   67   0.300  -0.440        0
  7713  296-43-14       2  101   67   0.300  -0.440        0
  7714  296-48-342      2  101   67   0.300  -0.440        0
  7715  296-56-11       2  101   67   0.300  -0.440        0
  7716  296-60-321      2  101   67   0.300  -0.440        0
  7717  296-65-300     -2  101   67   0.300  -0.440        0
  7718  297-17-4       -2  101   65   0.220   0.320        0
  7719  297-22-54      -2  101   65   0.220   0.320        0
  7720  297-27-11      -2  101   65   0.220   0.320        0
  7721  297-56-12       2  101   65   0.220   0.320        0
  7722  297-61-61       2  101   65   0.220   0.320        0
  7723  297-66-32       2  101   65   0.220   0.320        0
  7724  272-33-177      2  102   66   0.260   0.400        0
  7725  245-48-342      2  104   65   0.210  -0.330        0
  7726  245-56-12       2  104   65   0.210  -0.330        0
  7727  221-33-346     -2  106   63   0.430   0.130        0
  7728  222-48-343      2  106   63   0.470   0.070        0
  7729  222-56-9        2  106   63   0.470   0.070        0
  7730  222-61-60       2  106   63   0.470   0.070        0
  7731  222-66-54       2  106   63   0.470   0.070        0
  7732  222-71-34       2  106   63   0.470   0.070        0
  7733  223-48-343     -2  106   63   0.390   0.100        0
  7734  223-56-9       -2  106   63   0.390   0.100        0
  7735  223-61-60      -2  106   63   0.390   0.100        0
  7736  223-71-35      -2  106   63   0.390   0.100        0
  7737  219-71-365      2  107   64  -0.260  -0.280        0
  7738  102-43-8        3  121   50   0.080   0.490        0
  7739  102-48-344      3  121   50   0.080   0.490        0
  7740  92-71-40        1  122   51   0.150  -0.350        0
  7741  177-17-6        1  111   58  -0.360   0.330        0
  7742  177-38-7        1  111   58  -0.360   0.330        0
  7743  177-42-355      1  111   58  -0.360   0.330        0
  7744  177-48-335      1  111   58  -0.360   0.330        0
  7745  169-38-4       -3  111   58   0.210  -0.190        0
  7746  169-42-334     -3  111   58   0.210  -0.190        0
  7747  169-56-11      -3  111   58   0.210  -0.190        0
  7748  168-1-365      -2  111   58   0.440   0.430        0
  7749  170-38-7        3  111   58   0.400   0.270        0
  7750  170-42-355     -3  111   58   0.400   0.270        0
  7751  170-48-335     -3  111   58   0.400   0.270        0
  7752  170-56-9       -3  111   58   0.400   0.270        0
  7753  170-61-60      -3  111   58   0.400   0.270        0
  7754  170-66-48      -3  111   58   0.400   0.270        0
  7755  170-71-34       3  111   58   0.400   0.270        0
  7756  176-1-280      -2  111   57  -0.250   0.090        0
  7757  176-6-340      -2  111   57  -0.250   0.090        0
  7758  176-11-333     -2  111   57  -0.250   0.090        0
  7759  176-16-332     -2  111   57  -0.250   0.090        0
  7760  176-38-7       -2  111   57  -0.250   0.090        0
  7761  172-12-80       2  111   54   0.060  -0.080        0
  7762  172-17-60       2  111   54   0.060  -0.080        0
  7763  172-22-62       2  111   54   0.060  -0.080        0
  7764  172-27-6        2  111   54   0.060  -0.080        0
  7765  172-31-344      2  111   54   0.060  -0.080        0
  7766  172-36-335      2  111   54   0.060  -0.080        0
  7767  172-48-335      2  111   54   0.060  -0.080        0
  7768  172-56-11       2  111   54   0.060  -0.080        0
  7769  172-61-59       2  111   54   0.060  -0.080        0
  7770  171-43-47       2  111   54   0.060  -0.080        0
  7771  171-48-335      2  111   54   0.060  -0.080        0
  7772  171-56-11       2  111   54   0.060  -0.080        0
  7773  171-60-322      2  111   54   0.060  -0.080        0
  7774  171-65-298      2  111   54   0.060  -0.080        0
  7775  171-71-13       2  111   54   0.060  -0.080        0
  7776  164-33-152     -2  112   54   0.320  -0.340        0
  7777  167-48-335      2  112   54  -0.370  -0.140        0
  7778  167-56-11       2  112   54  -0.370  -0.140        0
  7779  166-61-56       2  112   54  -0.330   0.120        0
  7780  166-66-53       2  112   54  -0.330   0.120        0
  7781  166-71-35       2  112   54  -0.330   0.120        0
  7782  178-48-336      2  111   52  -0.400  -0.300        0
  7783  178-56-11       2  111   52  -0.400  -0.300        0
  7784  174-48-336      3  111   52   0.020   0.060        0
  7785  161-48-336      3  113   52  -0.220  -0.400        0
  7786  161-56-11       3  113   52  -0.220  -0.400        0
  7787  161-61-56       3  113   52  -0.220  -0.400        0
  7788  161-66-54       3  113   52  -0.220  -0.400        0
  7789  161-71-41       3  113   52  -0.220  -0.400        0
  7790  153-48-335      2  114   53   0.200  -0.450        0
  7791  163-48-336      2  113   53  -0.490  -0.030        0
  7792  163-56-11       2  113   53  -0.490  -0.030        0
  7793  163-61-59       2  113   53  -0.490  -0.030        0
  7794  163-66-54       2  113   53  -0.490  -0.030        0
  7795  163-71-41       2  113   53  -0.490  -0.030        0
  7796  156-48-336      2  114   53  -0.450  -0.060        0
  7797  156-56-11       2  114   53  -0.450  -0.060        0
  7798  157-1-358       1  113   56   0.320  -0.350        0
  7799  157-22-54       1  113   56   0.320  -0.350        0
  7800  157-27-11       1  113   56   0.320  -0.350        0
  7801  157-31-348      1  113   56   0.320  -0.350        0
  7802  157-37-22       1  113   56   0.320  -0.350        0
  7803  157-43-47       1  113   56   0.320  -0.350        0
  7804  157-48-335      1  113   56   0.320  -0.350        0
  7805  157-56-9        1  113   56   0.320  -0.350        0
  7806  157-60-322      1  113   56   0.320  -0.350        0
  7807  157-65-298      1  113   56   0.320  -0.350        0
  7808  157-71-365      1  113   56   0.320  -0.350        0
  7809  154-42-341      1  114   56  -0.030   0.110        0
  7810  159-38-4       -3  113   57  -0.030  -0.300        0
  7811  159-56-11      -3  113   57  -0.030  -0.300        0
  7812  147-38-4       -3  115   56  -0.270  -0.450        0
  7813  147-42-334     -3  115   56  -0.270  -0.450        0
  7814  147-56-11      -3  115   56  -0.270  -0.450        0
  7815  149-1-280       1  115   55   0.040   0.490        0
  7816  150-48-335      1  115   54   0.040   0.080        0
  7817  150-56-9        1  115   54   0.040   0.080        0
  7818  137-48-335      1  116   54   0.340  -0.110        0
  7819  137-56-9        1  116   54   0.340  -0.110        0
  7820  137-61-56       1  116   54   0.340  -0.110        0
  7821  137-66-53       1  116   54   0.340  -0.110        0
  7822  136-38-4       -2  116   55   0.420  -0.460        0
  7823  136-42-341     -2  116   55   0.420  -0.460        0
  7824  136-56-11      -2  116   55   0.420  -0.460        0
  7825  152-48-336      2  114   53   0.430  -0.420        0
  7826  129-17-5        1  118   54  -0.320  -0.150        0
  7827  129-27-11       1  118   54  -0.320  -0.150        0
  7828  123-42-348     -2  118   54   0.140  -0.340        0
  7829  128-42-348      1  118   54  -0.400  -0.010        0
  7830  128-56-11       1  118   54  -0.400  -0.010        0
  7831  133-12-362      2  116   56   0.500  -0.390        0
  7832  133-17-61       2  116   56   0.500  -0.390        0
  7833  133-27-6        2  116   56   0.500  -0.390        0
  7834  133-31-335      2  116   56   0.500  -0.390        0
  7835  133-38-4        2  116   56   0.500  -0.390        0
  7836  133-42-341      2  116   56   0.500  -0.390        0
  7837  133-48-335      2  116   56   0.500  -0.390        0
  7838  133-56-9        2  116   56   0.500  -0.390        0
  7839  133-71-365      2  116   56   0.500  -0.390        0
  7840  127-1-365       1  118   55  -0.210   0.360        0
  7841  127-17-1        1  118   55  -0.210   0.360        0
  7842  130-42-341     -2  117   55   0.490   0.130        0
  7843  130-48-335     -2  117   55   0.490   0.130        0
  7844  130-56-9       -2  117   55   0.490   0.130        0
  7845  126-27-11       1  118   55  -0.170  -0.100        0
  7846  135-48-336      2  116   58   0.490  -0.160        0
  7847  135-56-9        2  116   58   0.490  -0.160        0
  7848  122-48-336      2  119   57  -0.440   0.390        0
  7849  120-12-310      2  119   53   0.270  -0.170        0
  7850  120-17-5        2  119   53   0.270  -0.170        0
  7851  120-27-6        2  119   53   0.270  -0.170        0
  7852  120-31-335      2  119   53   0.270  -0.170        0
  7853  120-37-32       2  119   53   0.270  -0.170        0
  7854  120-42-341      2  119   53   0.270  -0.170        0
  7855  120-48-336      2  119   53   0.270  -0.170        0
  7856  120-56-10       2  119   53   0.270  -0.170        0
  7857  120-61-59       2  119   53   0.270  -0.170        0
  7858  120-65-292      2  119   53   0.270  -0.170        0
  7859  120-71-365      2  119   53   0.270  -0.170        0
  7860  118-38-4       -2  120   53  -0.370   0.070        0
  7861  118-42-341     -2  120   53  -0.370   0.070        0
  7862  118-48-349     -2  120   53  -0.370   0.070        0
  7863  118-56-10      -2  120   53  -0.370   0.070        0
  7864  107-27-69       2  120   53   0.400  -0.130        0
  7865  114-48-336     -3  120   54   0.010   0.310        0
  7866  114-56-10      -3  120   54   0.010   0.310        0
  7867  112-43-8        1  120   52   0.050   0.190        0
  7868  112-48-335      1  120   52   0.050   0.190        0
  7869  112-56-9        1  120   52   0.050   0.190        0
  7870  112-61-52       1  120   52   0.050   0.190        0
  7871  112-66-45       1  120   52   0.050   0.190        0
  7872  112-71-13       1  120   52   0.050   0.190        0
  7873  104-60-299      1  121   52  -0.110   0.050        0
  7874  104-65-292      1  121   52  -0.110   0.050        0
  7875  100-22-61       2  121   52   0.310   0.320        0
  7876  101-61-53       2  121   51   0.160  -0.190        0
  7877  97-22-54        1  121   51   0.430  -0.190        0
  7878  97-27-10        1  121   51   0.430  -0.190        0
  7879  98-43-8         1  121   51   0.390   0.430        0
  7880  98-48-348       1  121   51   0.390   0.430        0
  7881  98-56-10        1  121   51   0.390   0.430        0
  7882  98-61-52        1  121   51   0.390   0.430        0
  7883  98-66-45        1  121   51   0.390   0.430        0
  7884  105-43-69       2  121   54  -0.300   0.020        0
  7885  105-48-348      2  121   54  -0.300   0.020        0
  7886  105-56-10       2  121   54  -0.300   0.020        0
  7887  105-61-55       2  121   54  -0.300   0.020        0
  7888  105-66-45       2  121   54  -0.300   0.020        0
  7889  99-5-1          1  121   54   0.310  -0.110        0
  7890  106-56-10       2  121   57  -0.410  -0.270        0
  7891  106-61-59       2  121   57  -0.410  -0.270        0
  7892  106-66-45       2  121   57  -0.410  -0.270        0
  7893  106-71-40       2  121   57  -0.410  -0.270        0
  7894  95-71-40        3  122   58  -0.340  -0.480        0
  7895  3393-25-338     2    3   12  -0.200  -0.450        0
  7896  3312-25-338     2    9   13  -0.340  -0.460        0
  7897  3288-25-341     2   11   12  -0.080   0.390        0
  7898  3282-25-341     2   11   14   0.250  -0.480        0
  7899  3259-25-341    -2   14   15   0.410  -0.150        0
  7900  3222-25-229     1   16   24  -0.190   0.120        0
  7901  3213-25-337     2   16   20   0.420   0.420        0
  7902  3199-25-339    -2   17   26   0.350   0.320        0
  7903  3175-25-339     2   18   24   0.460   0.500        0
  7904  3170-25-342     2   19   22  -0.090   0.450        0
  7905  3200-25-336    -2   18   36  -0.090   0.180        0
  7906  3154-25-336     2   20   32   0.120  -0.340        0
  7907  3138-25-336     2   20   32   0.390   0.470        0
  7908  3046-25-344     2   25   31  -0.370  -0.450        0
  7909  3036-25-344     2   25   31   0.170  -0.450        0
  7910  3038-25-339    -3   25   35   0.140  -0.430        0
  7911  2684-25-3       3   37   15  -0.170   0.320        0
  7912  2919-25-351     2   30   39  -0.340  -0.310        0
  7913  2719-25-113     2   36   59  -0.090  -0.020        0
  7914  1933-25-180    -2   50   61   0.220  -0.390        0
  7915  1387-25-60     -2   60   61  -0.480  -0.030        0
  7916  1427-25-27      1   58   59   0.410  -0.180        0
  7917  1661-25-60      1   53   73   0.010  -0.030        0
  7918  1390-25-365    -2   60   65  -0.440  -0.360        0
  7919  1904-25-317     2   51   82  -0.460   0.010        0
  7920  1379-25-91      2   60   85  -0.130  -0.310        0
  7921  1796-25-321     3   52   90  -0.400  -0.190        0
  7922  1753-25-321     2   52   88  -0.170   0.250        0
  7923  1705-25-328     2   52   92   0.320   0.320        0
  7924  1064-25-125    -2   67   57   0.140  -0.040        0
  7925  831-25-335     -2   74   59  -0.360  -0.310        0
  7926  1066-25-335     2   67   90  -0.100   0.210        0
  7927  723-25-363      2   78   23   0.220  -0.320        0
  7928  568-25-307     -2   85   64   0.040   0.360        0
  7929  544-25-309      1   86   66  -0.120  -0.130        0
  7930  780-25-329      1   75   68   0.400   0.330        0
  7931  526-25-307      1   87   66  -0.390  -0.200        0
  7932  370-25-308     -2   96   65  -0.020   0.090        0
  7933  265-25-7       -2  103   62   0.020   0.150        0
  7934  266-25-43       2  103   58   0.030   0.070        0
  7935  232-25-314     -3  105   58   0.320   0.040        0
  7936  100-25-316      2  121   52   0.310   0.320        0
  7937  3205-26-8       2   17   18  -0.170   0.310        0
  7938  3174-26-7       2   18   22   0.370   0.330        0
  7939  3163-26-13      2   20   24  -0.360   0.110        0
  7940  3100-26-12     -2   22   17   0.490   0.480        0
  7941  3097-26-7       2   22   22   0.470   0.410        0
  7942  3096-26-12      2   22   24   0.360   0.360        0
  7943  3053-26-11      2   24   21   0.450   0.010        0
  7944  3065-26-12     -2   24   17  -0.210   0.440        0
  7945  3033-26-11     -2   25   19   0.250   0.420        0
  7946  2989-26-12      2   26   22   0.410  -0.480        0
  7947  3083-26-152    -2   23   34   0.150  -0.270        0
  7948  3040-26-13      2   25   28   0.050   0.470        0
  7949  2997-26-123     2   26   56   0.230  -0.360        0
  7950  3016-26-123     2   26   58  -0.270  -0.350        0
  7951  2953-26-14      2   28   25   0.330  -0.430        0
  7952  2963-26-14      2   28   22  -0.140   0.270        0
  7953  2968-26-13     -2   28   20  -0.330   0.290        0
  7954  2906-26-13     -2   30   20   0.420   0.380        0
  7955  2905-26-13     -2   30   25   0.430  -0.080        0
  7956  2874-26-14      2   31   23   0.420  -0.390        0
  7957  2780-26-13      3   34   18   0.470   0.410        0
  7958  2779-26-13     -2   34   20   0.480   0.040        0
  7959  2787-26-14      2   34   24   0.410   0.000        0
  7960  2790-26-14     -2   34   25   0.450   0.300        0
  7961  2772-26-13      3   35   17  -0.420  -0.340        0
  7962  2639-26-13     -2   38   20   0.380   0.350        0
  7963  2974-26-15      2   27   38   0.320  -0.410        0
  7964  2937-26-14     -2   29   37   0.120   0.130        0
  7965  2885-26-14      2   31   34  -0.120   0.110        0
  7966  2867-26-14      2   32   33  -0.400  -0.390        0
  7967  2837-26-14      2   32   31   0.210  -0.370        0
  7968  2748-26-15      2   35   31   0.120  -0.470        0
  7969  2694-26-15      2   36   31   0.460  -0.180        0
  7970  2933-26-15      2   29   28   0.180  -0.410        0
  7971  2851-26-14      2   32   28   0.010  -0.450        0
  7972  2711-26-15      2   36   29   0.150  -0.460        0
  7973  2928-26-18      2   29   40   0.320  -0.470        0
  7974  2811-26-14      2   32   39   0.150  -0.380        0
  7975  2808-26-18      2   33   39   0.490  -0.250        0
  7976  2766-26-47      2   35   48  -0.090  -0.190        0
  7977  2789-26-18      2   34   39   0.250   0.170        0
  7978  2696-26-18      2   36   44   0.360   0.430        0
  7979  2977-26-123    -2   27   60   0.460  -0.140        0
  7980  2914-26-120     2   30   52  -0.020   0.490        0
  7981  2930-26-123     2   30   61  -0.440  -0.430        0
  7982  2898-26-120     2   31   52  -0.480   0.190        0
  7983  2841-26-120     2   32   57   0.310  -0.290        0
  7984  2774-26-120     2   35   58  -0.270   0.010        0
  7985  2762-26-26      2   35   56  -0.270   0.450        0
  7986  2733-26-1       2   36   52  -0.430   0.190        0
  7987  2742-26-26      2   36   54   0.370   0.500        0
  7988  2670-26-18      2   37   54   0.400   0.500        0
  7989  2660-26-120     2   38   59   0.020  -0.210        0
  7990  2931-26-22      2   29   63   0.210   0.430        0
  7991  2595-26-12     -2   40   19   0.440   0.310        0
  7992  2596-26-1      -2   40   18   0.400   0.360        0
  7993  2589-26-11      3   40   15   0.390   0.310        0
  7994  2588-26-1       3   40   16   0.470   0.120        0
  7995  2564-26-12      3   41   18   0.090   0.390        0
  7996  2529-26-12     -2   42   20   0.440   0.370        0
  7997  2449-26-11      2   44   25   0.360   0.310        0
  7998  2492-26-13     -2   43   22   0.400   0.420        0
  7999  2452-26-12     -2   44   20   0.430   0.330        0
  8000  2303-26-1      -2   46   17   0.370  -0.050        0
  8001  2296-26-12     -2   46   21   0.420   0.370        0
  8002  2301-26-14     -2   46   23   0.460   0.350        0
  8003  2300-26-11     -2   46   25   0.280   0.370        0
  8004  2220-26-11     -2   47   26   0.390  -0.250        0
  8005  2089-26-1      -2   48   23   0.410  -0.170        0
  8006  2088-26-12     -2   48   24   0.420  -0.200        0
  8007  2448-26-11      2   44   28   0.410   0.170        0
  8008  2099-26-1      -2   48   27   0.390  -0.470        0
  8009  1922-26-1      -2   50   27   0.340   0.340        0
  8010  1983-26-11      2   50   30  -0.310   0.330        0
  8011  1930-26-14      3   50   33   0.280   0.290        0
  8012  2649-26-27     -2   38   48   0.280   0.360        0
  8013  2505-26-32      2   43   54   0.100  -0.410        0
  8014  2464-26-29      1   44   53   0.180   0.000        0
  8015  2388-26-32      1   46   56  -0.480   0.190        0
  8016  2412-26-20     -2   45   62   0.060  -0.090        0
  8017  2289-26-29      2   47   56  -0.490   0.150        0
  8018  2236-26-19      2   47   56   0.200   0.380        0
  8019  2183-26-29      2   48   54  -0.270   0.460        0
  8020  2215-26-104     2   47   74   0.420  -0.420        0
  8021  2162-26-102     2   48   68  -0.150   0.180        0
  8022  2130-26-69      1   48   63   0.080  -0.340        0
  8023  1990-26-67      2   50   63  -0.430   0.180        0
  8024  2103-26-67     -2   48   65   0.350   0.000        0
  8025  2055-26-102     1   49   65  -0.200   0.420        0
  8026  1997-26-183     1   50   69  -0.470   0.420        0
  8027  2339-26-104     2   46   75   0.080   0.460        0
  8028  2100-26-117     2   48   82   0.090   0.160        0
  8029  2010-26-75      1   49   75   0.370  -0.380        0
  8030  1428-26-1       3   58   24   0.140  -0.230        0
  8031  1383-26-8       3   60   25  -0.370   0.300        0
  8032  1819-26-1      -2   52   31  -0.470   0.240        0
  8033  1748-26-11     -2   52   31  -0.010   0.400        0
  8034  1702-26-11     -2   52   27   0.370  -0.120        0
  8035  1710-26-1      -2   52   27   0.410   0.470        0
  8036  1663-26-1      -2   53   27  -0.210   0.370        0
  8037  1612-26-11      2   54   32  -0.170  -0.110        0
  8038  1407-26-11     -2   59   34  -0.080   0.380        0
  8039  1364-26-11      2   60   31   0.410   0.480        0
  8040  1266-26-8      -2   62   31   0.360  -0.300        0
  8041  1336-26-11     -2   61   34  -0.090   0.380        0
  8042  1337-26-11     -2   61   32  -0.090   0.490        0
  8043  1264-26-1      -2   62   33   0.250  -0.420        0
  8044  1849-26-40     -2   51   62   0.290   0.170        0
  8045  1832-26-40      3   51   57   0.450   0.190        0
  8046  1690-26-33      2   53   59  -0.480   0.370        0
  8047  1691-26-1       2   53   58  -0.480   0.490        0
  8048  1417-26-60      2   59   62  -0.440   0.200        0
  8049  1386-26-34     -3   59   62   0.290   0.370        0
  8050  1329-26-35      2   61   58   0.170   0.170        0
  8051  1278-26-33      2   62   62   0.120   0.070        0
  8052  1879-26-69     -2   51   70  -0.020   0.200        0
  8053  1811-26-68     -2   52   69  -0.400  -0.390        0
  8054  1837-26-60      1   51   70   0.400  -0.120        0
  8055  1907-26-68      2   50   68   0.450   0.310        0
  8056  1888-26-68      2   51   66  -0.240   0.070        0
  8057  1779-26-67      1   52   66  -0.250  -0.250        0
  8058  1619-26-67     -2   54   65  -0.300  -0.490        0
  8059  1723-26-60      2   52   66   0.320  -0.480        0
  8060  1694-26-68     -2   53   68  -0.490   0.220        0
  8061  1658-26-67     -2   53   67   0.090  -0.150        0
  8062  1655-26-69     -2   53   70   0.090   0.040        0
  8063  1614-26-69      1   54   70  -0.220  -0.280        0
  8064  1596-26-69      1   54   71  -0.340  -0.210        0
  8065  1630-26-69      1   54   72  -0.490   0.060        0
  8066  1552-26-74      1   55   69  -0.080   0.070        0
  8067  1467-26-76      2   57   63   0.110   0.410        0
  8068  1470-26-74      2   57   66  -0.120  -0.020        0
  8069  1455-26-81      1   57   66   0.450  -0.020        0
  8070  1443-26-81      2   58   66  -0.430   0.010        0
  8071  1465-26-74      1   57   67   0.180  -0.210        0
  8072  1440-26-74     -2   57   68   0.260  -0.430        0
  8073  1474-26-75      1   57   70  -0.200   0.140        0
  8074  1453-26-71      1   57   69   0.370  -0.090        0
  8075  1488-26-70      2   57   74  -0.440   0.080        0
  8076  1502-26-71     -2   56   74   0.260  -0.350        0
  8077  1477-26-60      2   57   73  -0.240   0.100        0
  8078  1458-26-153     2   57   74   0.250  -0.410        0
  8079  1429-26-71     -2   58   74   0.100  -0.440        0
  8080  1397-26-71     -2   59   68   0.290   0.090        0
  8081  1416-26-76     -2   59   63  -0.320  -0.110        0
  8082  1312-26-88      1   61   66   0.320   0.440        0
  8083  1359-26-82     -2   60   73   0.200  -0.410        0
  8084  1333-26-82     -2   61   73  -0.230  -0.450        0
  8085  1295-26-84      1   62   73  -0.150  -0.020        0
  8086  1892-26-193    -2   51   83  -0.340   0.110        0
  8087  1940-26-109    -2   50   80   0.280  -0.400        0
  8088  1659-26-71     -2   53   76   0.120   0.090        0
  8089  1671-26-60     -2   53   75  -0.070   0.280        0
  8090  1627-26-70      2   54   76  -0.460  -0.100        0
  8091  1677-26-83      2   53   81  -0.080  -0.450        0
  8092  1602-26-83      2   54   80  -0.010  -0.270        0
  8093  1604-26-83      2   54   81  -0.010  -0.320        0
  8094  1669-26-109     2   53   85  -0.200  -0.230        0
  8095  1622-26-109     2   54   85  -0.400  -0.090        0
  8096  1553-26-88      2   55   84  -0.060  -0.230        0
  8097  1563-26-88      2   55   83  -0.290  -0.170        0
  8098  1586-26-84      2   54   81   0.490   0.170        0
  8099  1507-26-75      2   56   77   0.100   0.070        0
  8100  1495-26-60     -2   56   77   0.410   0.170        0
  8101  1484-26-75      2   57   77  -0.320  -0.250        0
  8102  1489-26-88      2   57   82  -0.410  -0.370        0
  8103  1464-26-88      2   57   83   0.010  -0.170        0
  8104  1414-26-95      2   59   85  -0.470   0.210        0
  8105  1395-26-88      2   59   79   0.390   0.000        0
  8106  1377-26-83      2   60   79   0.080  -0.260        0
  8107  1375-26-88      2   60   81   0.150  -0.470        0
  8108  1396-26-70      2   59   77   0.280  -0.350        0
  8109  1415-26-84      1   59   76  -0.450  -0.160        0
  8110  1300-26-213     2   62   83  -0.400   0.490        0
  8111  1276-26-95      2   62   84   0.130   0.470        0
  8112  1354-26-95      2   61   87  -0.480  -0.260        0
  8113  1358-26-95      3   61   87  -0.290  -0.350        0
  8114  846-26-13       3   73   19  -0.300  -0.090        0
  8115  833-26-13      -2   73   21   0.470   0.130        0
  8116  827-26-13      -2   74   22  -0.220   0.270        0
  8117  845-26-13       2   73   24  -0.360   0.190        0
  8118  1105-26-118     2   66   36   0.240   0.350        0
  8119  1120-26-13      2   66   38  -0.220  -0.250        0
  8120  1088-26-91      3   67   33  -0.460  -0.360        0
  8121  809-26-13       3   74   30   0.140  -0.080        0
  8122  1235-26-36     -2   63   61  -0.230  -0.290        0
  8123  1239-26-33     -3   63   60  -0.270  -0.140        0
  8124  1227-26-33     -2   63   59   0.420   0.470        0
  8125  1219-26-36     -3   63   60   0.390   0.190        0
  8126  1168-26-35      2   65   58  -0.240  -0.030        0
  8127  1140-26-35     -3   65   58   0.410  -0.220        0
  8128  1160-26-36     -2   65   60  -0.120   0.190        0
  8129  1121-26-36     -3   66   60  -0.240   0.120        0
  8130  1080-26-36      1   67   62  -0.320  -0.350        0
  8131  1048-26-36     -3   67   61   0.360  -0.030        0
  8132  1075-26-36     -3   67   60  -0.170  -0.010        0
  8133  1016-26-36      3   68   59  -0.020  -0.340        0
  8134  1011-26-36     -3   68   59   0.090  -0.020        0
  8135  1083-26-35      2   67   58  -0.360  -0.320        0
  8136  997-26-244      2   68   57   0.210  -0.170        0
  8137  910-26-166     -2   71   57  -0.500   0.190        0
  8138  1212-26-64      3   64   71  -0.430  -0.430        0
  8139  1131-26-349     2   66   63  -0.400  -0.140        0
  8140  1188-26-60      2   64   69   0.300  -0.250        0
  8141  1076-26-341    -2   67   72  -0.250  -0.350        0
  8142  1000-26-18      1   68   71   0.160  -0.460        0
  8143  1095-26-18      1   66   65   0.370   0.010        0
  8144  1035-26-61      1   68   65  -0.450  -0.190        0
  8145  1037-26-60      1   68   63  -0.480   0.020        0
  8146  878-26-60      -2   72   63  -0.310  -0.400        0
  8147  1250-26-84     -2   62   75   0.260   0.090        0
  8148  1251-26-84     -2   62   75   0.380  -0.300        0
  8149  1195-26-81     -2   64   76  -0.170   0.110        0
  8150  1110-26-62      1   66   76  -0.060   0.010        0
  8151  1044-26-82      2   67   82   0.270  -0.350        0
  8152  1017-26-62      2   69   76   0.110   0.110        0
  8153  973-26-95       2   69   85  -0.400   0.040        0
  8154  870-26-95       3   72   86  -0.190  -0.340        0
  8155  3417-26-95     -2   74   85  -0.010   0.310        0
  8156  1246-26-305     3   63   88  -0.490  -0.470        0
  8157  1593-26-18      2   67   89  -0.400  -0.090        0
  8158  757-26-141     -2   76   21   0.230  -0.240        0
  8159  758-26-1       -2   76   19   0.220  -0.260        0
  8160  722-26-64       2   78   17   0.200  -0.290        0
  8161  737-26-1        2   77   18   0.210  -0.240        0
  8162  656-26-1        2   82   15  -0.130   0.040        0
  8163  602-26-1        2   84   16   0.060   0.400        0
  8164  598-26-1        3   85   22  -0.430  -0.420        0
  8165  720-26-1        2   79   29  -0.460  -0.420        0
  8166  674-26-43      -2   81   64   0.410  -0.220        0
  8167  673-26-49      -2   81   67   0.440   0.490        0
  8168  810-26-43       2   74   63   0.250  -0.200        0
  8169  785-26-65       2   75   80   0.460   0.260        0
  8170  681-26-96       2   81   81  -0.070  -0.370        0
  8171  608-26-64      -2   84   82   0.020   0.400        0
  8172  559-26-60       2   85   85   0.320   0.460        0
  8173  731-26-98       3   78   92  -0.160  -0.130        0
  8174  683-26-91       3   81   91  -0.250   0.160        0
  8175  496-26-56       2   88   61   0.370   0.100        0
  8176  408-26-46       3   94   56  -0.160   0.440        0
  8177  391-26-72      -2   95   59   0.070  -0.370        0
  8178  451-26-85       3   91   85  -0.330   0.270        0
  8179  477-26-63       1   89   75   0.350   0.200        0
  8180  302-26-47       3  101   58  -0.160   0.040        0
  8181  295-26-47       3  101   58   0.380  -0.350        0
  8182  281-26-47       3  102   58   0.150  -0.160        0
  8183  270-26-41       3  103   58  -0.400  -0.350        0
  8184  278-26-11      -2  102   60   0.180   0.060        0
  8185  250-26-11      -2  104   61  -0.320  -0.020        0
  8186  3333-27-99      2    7   30   0.410   0.170        0
  8187  3176-27-347     2   18   20   0.330   0.350        0
  8188  3055-27-126     3   24   61   0.320  -0.330        0
  8189  2747-27-253     2   35   49   0.140   0.070        0
  8190  995-27-236     -2   68   34   0.340   0.360        0
  8191  778-27-348      2   75   77   0.270  -0.450        0
  8192  718-27-151     -2   79   84  -0.450  -0.470        0
  8193  3239-30-335     2   15   68   0.360   0.320        0
  8194  3181-30-185    -2   18   68   0.150  -0.170        0
  8195  3211-30-274     2   16   70   0.470   0.330        0
  8196  3189-30-181    -2   18   69  -0.120  -0.100        0
  8197  3198-30-274     2   17   70   0.420   0.100        0
  8198  3192-30-274     2   18   70  -0.380   0.170        0
  8199  3124-30-213     2   21   69   0.060   0.230        0
  8200  2832-30-108    -2   33   45  -0.420  -0.280        0
  8201  2673-30-244    -2   37   51   0.250  -0.470        0
  8202  2876-30-99     -2   31   56   0.320  -0.100        0
  8203  2774-30-91      2   35   58  -0.270   0.010        0
  8204  2733-30-27      2   36   52  -0.430   0.190        0
  8205  2603-30-29     -2   40   50   0.160   0.010        0
  8206  2652-30-27     -2   38   53   0.240  -0.480        0
  8207  2576-30-30      1   41   55  -0.270  -0.440        0
  8208  2542-30-30     -2   42   56   0.000  -0.460        0
  8209  2505-30-29      2   43   54   0.100  -0.410        0
  8210  2355-30-1      -2   46   51   0.010   0.340        0
  8211  2464-30-29      1   44   53   0.180   0.000        0
  8212  2357-30-30      2   46   54   0.090   0.100        0
  8213  2373-30-30     -3   46   55  -0.450   0.050        0
  8214  2446-30-30     -2   45   57  -0.360   0.450        0
  8215  2445-30-121     1   45   60  -0.480  -0.370        0
  8216  2237-30-34      2   47   60   0.160  -0.470        0
  8217  2137-30-35     -2   48   58   0.040  -0.450        0
  8218  2109-30-30      2   48   56   0.230  -0.240        0
  8219  2038-30-1       2   49   58  -0.350   0.360        0
  8220  2059-30-35     -2   49   59  -0.270   0.080        0
  8221  2227-30-273    -3   47   65   0.310  -0.300        0
  8222  2056-30-18      1   49   64  -0.190  -0.080        0
  8223  2019-30-111    -2   49   64   0.300   0.020        0
  8224  1998-30-244     1   50   68  -0.470   0.150        0
  8225  2086-30-14      2   48   70   0.460   0.360        0
  8226  2069-30-244    -2   49   72  -0.350  -0.180        0
  8227  2081-30-105     2   48   71   0.460   0.340        0
  8228  2246-30-335     2   47   76   0.000   0.210        0
  8229  2001-30-305     2   49   83   0.470   0.370        0
  8230  1617-30-121     1   54   61  -0.220   0.030        0
  8231  1391-30-43     -3   59   62   0.250   0.400        0
  8232  1427-30-11      1   58   59   0.410  -0.180        0
  8233  1400-30-42      2   59   60   0.140  -0.400        0
  8234  1619-30-57     -2   54   65  -0.300  -0.490        0
  8235  1693-30-51      1   52   72   0.470   0.090        0
  8236  1500-30-56     -2   56   65   0.270   0.130        0
  8237  1312-30-349     1   61   66   0.320   0.440        0
  8238  1874-30-1       2   51   86  -0.010   0.200        0
  8239  1857-30-157     1   51   83   0.150  -0.340        0
  8240  1843-30-213    -2   51   82   0.350  -0.250        0
  8241  1846-30-43     -2   52   78  -0.380   0.430        0
  8242  1676-30-79      2   53   82  -0.240   0.140        0
  8243  1574-30-246     2   55   85  -0.410  -0.030        0
  8244  1368-30-60     -2   60   77   0.310  -0.350        0
  8245  1366-30-43      2   60   79   0.350  -0.260        0
  8246  1348-30-43      2   61   81  -0.350   0.110        0
  8247  1320-30-335     2   61   84   0.140   0.430        0
  8248  1276-30-121     2   62   84   0.130   0.470        0
  8249  1751-30-305     2   52   91  -0.140  -0.410        0
  8250  1752-30-305     2   52   87  -0.130   0.080        0
  8251  1749-30-305     2   52   87  -0.090  -0.310        0
  8252  1754-30-130     1   52   88  -0.170  -0.370        0
  8253  812-30-6       -2   74   19   0.160   0.430        0
  8254  1235-30-43     -2   63   61  -0.230  -0.290        0
  8255  1197-30-43      1   64   67   0.070   0.090        0
  8256  1187-30-182    -3   64   70   0.300  -0.050        0
  8257  1194-30-1       2   64   75   0.180  -0.330        0
  8258  529-30-351     -2   86   63   0.500  -0.490        0
  8259  686-30-127     -3   81   63  -0.400  -0.140        0
  8260  488-30-44       3   89   60  -0.480   0.390        0
  8261  485-30-351     -2   89   58  -0.320   0.400        0
  8262  476-30-60       3   89   62   0.400  -0.010        0
  8263  408-30-349      3   94   56  -0.160   0.440        0
  8264  402-30-213      3   94   58   0.380  -0.030        0
  8265  366-30-42       2   96   68   0.170   0.420        0
  8266  301-30-342      3  101   58  -0.120   0.460        0
  8267  270-30-342      3  103   58  -0.400  -0.350        0
  8268  3376-31-2       2    7   14  -0.080  -0.350        0
  8269  3351-31-101     2    6   20  -0.490  -0.230        0
  8270  3272-31-104     3   12   67  -0.010   0.340        0
  8271  3145-31-193    -2   20   24   0.290   0.300        0
  8272  3161-31-244     2   20   28  -0.190   0.450        0
  8273  3038-31-1      -3   25   35   0.140  -0.430        0
  8274  3243-31-1       2   15   68   0.130   0.320        0
  8275  3256-31-104    -2   15   67  -0.440  -0.300        0
  8276  3208-31-273    -2   17   67  -0.260  -0.460        0
  8277  3153-31-348    -2   20   69   0.140  -0.390        0
  8278  3164-31-283    -2   20   70  -0.430  -0.450        0
  8279  3093-31-104     2   23   68  -0.290  -0.200        0
  8280  2787-31-57      2   34   24   0.410   0.000        0
  8281  2734-31-1      -2   36   18  -0.490   0.480        0
  8282  2823-31-196     2   32   29  -0.330   0.270        0
  8283  2927-31-29     -3   29   42   0.090  -0.390        0
  8284  2743-31-220     2   35   50   0.180   0.180        0
  8285  2756-31-252    -2   35   48  -0.090  -0.230        0
  8286  2699-31-1       2   36   50   0.290  -0.310        0
  8287  2687-31-266    -2   37   49  -0.130  -0.090        0
  8288  2615-31-1       2   40   32  -0.360   0.240        0
  8289  2650-31-60      2   38   47   0.200   0.120        0
  8290  2558-31-121    -2   41   50   0.300  -0.440        0
  8291  2475-31-120    -2   44   55  -0.130   0.050        0
  8292  2460-31-120    -2   44   55   0.250   0.340        0
  8293  2427-31-120    -2   45   58  -0.360   0.040        0
  8294  2326-31-121    -3   46   62   0.240  -0.260        0
  8295  2212-31-121    -2   48   60  -0.420  -0.470        0
  8296  1991-31-36     -2   50   56  -0.390   0.310        0
  8297  1958-31-36     -2   50   57  -0.010   0.100        0
  8298  2057-31-121     2   49   60  -0.160   0.180        0
  8299  1951-31-36     -2   50   62   0.070   0.140        0
  8300  2014-31-121     1   49   66   0.340   0.000        0
  8301  1974-31-120     1   50   66  -0.160  -0.030        0
  8302  2102-31-119    -2   48   70   0.340  -0.260        0
  8303  2054-31-91     -2   49   70  -0.200  -0.350        0
  8304  2339-31-78      2   46   75   0.080   0.460        0
  8305  2330-31-196     2   46   82   0.180  -0.460        0
  8306  2100-31-78      2   48   82   0.090   0.160        0
  8307  2043-31-211    -2   49   79  -0.020   0.370        0
  8308  1849-31-1      -2   51   62   0.290   0.170        0
  8309  1471-31-113    -2   57   59  -0.270   0.440        0
  8310  1461-31-40     -2   57   62   0.260   0.500        0
  8311  1321-31-40      2   61   60   0.170   0.350        0
  8312  1306-31-113    -2   61   60   0.400  -0.400        0
  8313  1307-31-113     2   61   59   0.360   0.210        0
  8314  1305-31-121     2   62   61  -0.490   0.260        0
  8315  1886-31-119     1   51   71  -0.210   0.110        0
  8316  1879-31-119    -2   51   70  -0.020   0.200        0
  8317  1779-31-119     1   52   66  -0.250  -0.250        0
  8318  1724-31-118     2   52   65   0.360   0.130        0
  8319  1694-31-119    -2   53   68  -0.490   0.220        0
  8320  1695-31-120     2   52   68   0.480  -0.330        0
  8321  1596-31-119     1   54   71  -0.340  -0.210        0
  8322  1683-31-68     -2   53   74  -0.420   0.170        0
  8323  1552-31-117     1   55   69  -0.080   0.070        0
  8324  1533-31-118     1   55   67   0.350  -0.310        0
  8325  1813-31-117     2   55   66   0.460   0.040        0
  8326  1538-31-117    -2   55   66   0.310  -0.280        0
  8327  1470-31-117     2   57   66  -0.120  -0.020        0
  8328  1453-31-117     1   57   69   0.370  -0.090        0
  8329  1502-31-120    -2   56   74   0.260  -0.350        0
  8330  1416-31-62     -2   59   63  -0.320  -0.110        0
  8331  1784-31-148    -2   52   76  -0.260  -0.240        0
  8332  1659-31-114    -2   53   76   0.120   0.090        0
  8333  1671-31-114    -2   53   75  -0.070   0.280        0
  8334  1602-31-114     2   54   80  -0.010  -0.270        0
  8335  1507-31-114     2   56   77   0.100   0.070        0
  8336  1514-31-114    -2   56   76  -0.090   0.320        0
  8337  1495-31-69     -2   56   77   0.410   0.170        0
  8338  1484-31-114     2   57   77  -0.320  -0.250        0
  8339  1483-31-114     2   57   80  -0.220   0.230        0
  8340  1239-31-113    -3   63   60  -0.270  -0.140        0
  8341  1234-31-113    -3   63   59  -0.420   0.470        0
  8342  1099-31-117    -3   66   63   0.330  -0.340        0
  8343  853-31-118      2   72   63   0.340  -0.300        0
  8344  720-31-1        2   79   29  -0.460  -0.420        0
  8345  729-31-118     -2   78   64   0.080  -0.360        0
  8346  679-31-118     -2   81   66   0.020  -0.500        0
  8347  810-31-118      2   74   63   0.250  -0.200        0
  8348  299-31-59      -2  101   60  -0.040   0.360        0
  8349  3281-32-351     2   11   16   0.350  -0.460        0
  8350  3347-32-97      3    6   64  -0.200  -0.130        0
  8351  3051-32-152    -2   24   20   0.220  -0.290        0
  8352  3004-32-94     -2   26   46   0.110   0.130        0
  8353  2997-32-94      2   26   56   0.230  -0.360        0
  8354  3016-32-94      2   26   58  -0.270  -0.350        0
  8355  3055-32-94      3   24   61   0.320  -0.330        0
  8356  2880-32-95      2   31   50   0.240  -0.210        0
  8357  2883-32-196     2   31   47   0.160  -0.460        0
  8358  2977-32-96     -2   27   60   0.460  -0.140        0
  8359  2914-32-96      2   30   52  -0.020   0.490        0
  8360  2930-32-96      2   30   61  -0.440  -0.430        0
  8361  2869-32-96      2   32   62  -0.410   0.190        0
  8362  2898-32-96      2   31   52  -0.480   0.190        0
  8363  2841-32-96      2   32   57   0.310  -0.290        0
  8364  2742-32-95      2   36   54   0.370   0.500        0
  8365  2956-32-95      2   28   65   0.260  -0.110        0
  8366  2441-32-216     3   45   20  -0.310   0.430        0
  8367  2477-32-137     3   44   27  -0.200   0.450        0
  8368  2334-32-335     2   46   71   0.240  -0.150        0
  8369  2314-32-342     2   46   69   0.280   0.420        0
  8370  2331-32-29      2   46   77   0.190  -0.240        0
  8371  2128-32-154     1   48   76   0.070  -0.440        0
  8372  2092-32-154     1   48   76   0.410  -0.400        0
  8373  2085-32-154     1   48   78   0.450   0.070        0
  8374  1278-32-50      2   62   62   0.120   0.070        0
  8375  1791-32-119    -2   52   72  -0.250  -0.010        0
  8376  1131-32-62      2   66   63  -0.400  -0.140        0
  8377  1035-32-71      1   68   65  -0.450  -0.190        0
  8378  2799-35-122    -2   34   44   0.030   0.500        0
  8379  861-35-329      2   72   31   0.200   0.390        0
  8380  3038-36-52     -3   25   35   0.140  -0.430        0
  8381  2937-36-86     -2   29   37   0.120   0.130        0
  8382  1428-36-91      3   58   24   0.140  -0.230        0
  8383  1106-36-164     3   66   37   0.310  -0.480        0
  8384  727-36-333     -2   78   79   0.060  -0.400        0
  8385  492-36-108      3   88   61   0.410   0.400        0
  8386  380-36-78      -2   96   63  -0.470  -0.460        0
  8387  3318-37-364    -2    8   24   0.430  -0.450        0
  8388  2476-37-182     2   44   60   0.060   0.090        0
  8389  2437-37-1       2   45   60  -0.440   0.440        0
  8390  1436-37-201     2   57   71   0.220   0.120        0
  8391  974-37-342      3   69   60  -0.370   0.450        0
  8392  981-37-84       2   68   83   0.110  -0.470        0
  8393  814-37-58       2   74   81   0.120  -0.480        0
  8394  697-37-41      -2   80   85  -0.150  -0.360        0
  8395  659-37-16      -3   82   78   0.040   0.380        0
1
                            STRESS PERIOD NO.    1, LENGTH =   366.0000    
                            -----------------------------------------------

                              NUMBER OF TIME STEPS =     1

                               MULTIPLIER FOR DELT =     1.000

                            INITIAL TIME STEP SIZE =   366.0000    

    408 WELLS



                         ET SURFACE
 READING ON UNIT   14 WITH FORMAT: (15F5.0)            



            EVAPOTRANSPIRATION RATE
 READING ON UNIT   14 WITH FORMAT: (15F5.0)            



                   EXTINCTION DEPTH
 READING ON UNIT   14 WITH FORMAT: (15F3.0)            



                           RECHARGE
 READING ON UNIT   16 WITH FORMAT: (15F5.0)            


     63 TIME-VARIANT SPECIFIED-HEAD CELLS
 
 SOLVING FOR HEAD 
                                                   Max.-Head-Change                         Max.-Flux-Residual
  Residual-Control   Outer-Iter.   Inner-Iter.     Column Row Layer    Maximum-Head-Change  Column Row Layer    Maximum-Flux-Residual          L2-NORM 
          0                 1          50            84   63     2      -0.3205096873E+03      84   63    2        -0.1078220100E+07      0.3009719337E+07
          0                 2          50            81   45     1      -0.8078921245E+02      91   75    2        -0.5151805904E+06      0.9121347263E+06
          0                 3          50            81   45     1       0.6559327169E+02      91   75    2        -0.1245598082E+06      0.3557659885E+06
          0                 4          50            81   45     1      -0.1246075330E+02      81   45    1        -0.6441174651E+05      0.7487515259E+05
          0                 5          23            92   75     2       0.2800678137E+01      81   45    1        -0.1126491827E+05      0.1496481373E+05
          0                 6          18            92   75     2       0.6938542784E+00      81   45    1        -0.1967891998E+04      0.2261939891E+04
          0                 7          22            81   45     1      -0.6601836861E-01      81   45    1        -0.3362795457E+03      0.4155383040E+03
          0                 8           2            81   45     1      -0.1114491375E-01      39   28    1        -0.1716901592E+03      0.4139777111E+03
          0                 9           2            81   45     1      -0.1988393807E-02      39   28    1        -0.3914956510E+02      0.7888572371E+02

    ------------------------------------------------
       NWT REQUIRED            9 OUTER ITERATIONS 
       AND A TOTAL OF        267 INNER ITERATIONS.
    ------------------------------------------------

 OUTPUT CONTROL FOR STRESS PERIOD    1   TIME STEP    1
    SAVE BUDGET
    SAVE HEAD FOR LAYERS:   1  2  3
 UBDSV2 SAVING "   CONSTANT HEAD" ON UNIT  39 AT TIME STEP  1, STRESS PERIOD   1
 UBDSV1 SAVING "FLOW RIGHT FACE " ON UNIT  39 AT TIME STEP  1, STRESS PERIOD   1
 UBDSV1 SAVING "FLOW FRONT FACE " ON UNIT  39 AT TIME STEP  1, STRESS PERIOD   1
 UBDSV1 SAVING "FLOW LOWER FACE " ON UNIT  39 AT TIME STEP  1, STRESS PERIOD   1
 UBDSV4 SAVING "           WELLS" ON UNIT  39 AT TIME STEP  1, STRESS PERIOD   1
 UBDSV3 SAVING "              ET" ON UNIT  39 AT TIME STEP  1, STRESS PERIOD   1
 UBDSV3 SAVING "        RECHARGE" ON UNIT  39 AT TIME STEP  1, STRESS PERIOD   1

 INTERPOLATION FOR HEAD OBS# 1759, ID 2574-1-107   CHANGED BECAUSE AT LEAST ONE
 NEIGHBORING CELL REQUIRED FOR INTERPOLATION IS DRY OR INACTIVE (OBS2BAS7SE)

 INTERPOLATION FOR HEAD OBS# 3660, ID 1891-1-365   CHANGED BECAUSE AT LEAST ONE
 NEIGHBORING CELL REQUIRED FOR INTERPOLATION IS DRY OR INACTIVE (OBS2BAS7SE)

 INTERPOLATION FOR HEAD OBS# 3787, ID 1282-1-277   CHANGED BECAUSE AT LEAST ONE
 NEIGHBORING CELL REQUIRED FOR INTERPOLATION IS DRY OR INACTIVE (OBS2BAS7SE)

 HEAD WILL BE SAVED ON UNIT   31 AT END OF TIME STEP    1, STRESS PERIOD    1
1
  VOLUMETRIC BUDGET FOR ENTIRE MODEL AT END OF TIME STEP    1, STRESS PERIOD   1
  ------------------------------------------------------------------------------

     CUMULATIVE VOLUMES      L**3       RATES FOR THIS TIME STEP      L**3/T
     ------------------                 ------------------------

           IN:                                      IN:
           ---                                      ---
             STORAGE =           0.0000               STORAGE =           0.0000
       CONSTANT HEAD =   463009632.0000         CONSTANT HEAD =     1265053.6250
               WELLS =   448584960.0000                 WELLS =     1225642.0000
                  ET =           0.0000                    ET =           0.0000
            RECHARGE =  3744436224.0000              RECHARGE =    10230700.0000

            TOTAL IN =  4656030720.0000              TOTAL IN =    12721396.0000

          OUT:                                     OUT:
          ----                                     ----
             STORAGE =           0.0000               STORAGE =           0.0000
       CONSTANT HEAD =  1125248000.0000         CONSTANT HEAD =     3074448.2500
               WELLS =  3069635328.0000                 WELLS =     8386982.0000
                  ET =   461223904.0000                    ET =     1260174.6250
            RECHARGE =           0.0000              RECHARGE =           0.0000

           TOTAL OUT =  4656107520.0000             TOTAL OUT =    12721605.0000

            IN - OUT =      -76800.0000              IN - OUT =        -209.0000

 PERCENT DISCREPANCY =          -0.00     PERCENT DISCREPANCY =          -0.00






         TIME SUMMARY AT END OF TIME STEP    1 IN STRESS PERIOD    1
                    SECONDS     MINUTES      HOURS       DAYS        YEARS
                    -----------------------------------------------------------
   TIME STEP LENGTH 3.16224E+07 5.27040E+05  8784.0      366.00      1.0021    
 STRESS PERIOD TIME 3.16224E+07 5.27040E+05  8784.0      366.00      1.0021    
         TOTAL TIME 3.16224E+07 5.27040E+05  8784.0      366.00      1.0021    
1
 A TOTAL OF 108 HYDROGRAPH POINTS HAVE BEEN PREPARED.
1
                            STRESS PERIOD NO.    2, LENGTH =   365.0000    
                            -----------------------------------------------

                              NUMBER OF TIME STEPS =    12

                               MULTIPLIER FOR DELT =     1.000

                            INITIAL TIME STEP SIZE =   30.41667    

    540 WELLS

 REUSING SURF FROM LAST STRESS PERIOD

 REUSING EVTR FROM LAST STRESS PERIOD

 REUSING EXDP FROM LAST STRESS PERIOD



                           RECHARGE
 READING ON UNIT   16 WITH FORMAT: (15F5.0)            


     63 TIME-VARIANT SPECIFIED-HEAD CELLS
 
 SOLVING FOR HEAD 
                                                   Max.-Head-Change                         Max.-Flux-Residual
  Residual-Control   Outer-Iter.   Inner-Iter.     Column Row Layer    Maximum-Head-Change  Column Row Layer    Maximum-Flux-Residual          L2-NORM 
          0                 1           6            64   91     3      -0.3834782258E+02      65   90    1        -0.3406170095E+06      0.8521785667E+06
          0                 2           5            77   46     1      -0.7325813342E+01      77   46    1        -0.2795294306E+06      0.2919498267E+06
          0                 3           2            78   46     1       0.3920902202E-01      77   46    1        -0.3077311487E+03      0.5739439730E+03
          0                 4           2            78   46     1       0.3863774458E-02      67   47    1         0.2466348469E+02      0.3212852979E+02

    ------------------------------------------------
       NWT REQUIRED            4 OUTER ITERATIONS 
       AND A TOTAL OF         15 INNER ITERATIONS.
    ------------------------------------------------

 NO OUTPUT CONTROL FOR STRESS PERIOD    2   TIME STEP    1

 INTERPOLATION FOR HEAD OBS# 1010, ID 2643-2-60    CHANGED BECAUSE AT LEAST ONE
 NEIGHBORING CELL REQUIRED FOR INTERPOLATION IS DRY OR INACTIVE (OBS2BAS7SE)
 
 SOLVING FOR HEAD 
                                                   Max.-Head-Change                         Max.-Flux-Residual
  Residual-Control   Outer-Iter.   Inner-Iter.     Column Row Layer    Maximum-Head-Change  Column Row Layer    Maximum-Flux-Residual          L2-NORM 
          0                 1           6            64   91     3      -0.8231872584E+01      65   90    1        -0.1259097738E+06      0.5156524039E+06
          0                 2           4            64   91     3       0.7459002360E+00      72   48    1        -0.1417835875E+05      0.5190846375E+05
          0                 3           2            92   51     3      -0.1515729231E-02      92   51    3        -0.1803285495E+02      0.2520742009E+02

    ------------------------------------------------
       NWT REQUIRED            3 OUTER ITERATIONS 
       AND A TOTAL OF         12 INNER ITERATIONS.
    ------------------------------------------------

 NO OUTPUT CONTROL FOR STRESS PERIOD    2   TIME STEP    2
 
 SOLVING FOR HEAD 
                                                   Max.-Head-Change                         Max.-Flux-Residual
  Residual-Control   Outer-Iter.   Inner-Iter.     Column Row Layer    Maximum-Head-Change  Column Row Layer    Maximum-Flux-Residual          L2-NORM 
          0                 1           6            65   93     3      -0.3411215391E+01      72   48    1         0.9762173155E+05      0.4075485208E+06
          0                 2           4            65   93     3       0.3100911436E+00      72   48    1        -0.9849961840E+04      0.4135145874E+05
          0                 3           2            66   46     1      -0.8577030228E-02      66   46    1        -0.5316180619E+03      0.5318631666E+03

    ------------------------------------------------
       NWT REQUIRED            3 OUTER ITERATIONS 
       AND A TOTAL OF         12 INNER ITERATIONS.
    ------------------------------------------------

 NO OUTPUT CONTROL FOR STRESS PERIOD    2   TIME STEP    3

 INTERPOLATION FOR HEAD OBS# 6243, ID 1164-2-93    CHANGED BECAUSE AT LEAST ONE
 NEIGHBORING CELL REQUIRED FOR INTERPOLATION IS DRY OR INACTIVE (OBS2BAS7SE)
 
 SOLVING FOR HEAD 
                                                   Max.-Head-Change                         Max.-Flux-Residual
  Residual-Control   Outer-Iter.   Inner-Iter.     Column Row Layer    Maximum-Head-Change  Column Row Layer    Maximum-Flux-Residual          L2-NORM 
          0                 1           5            81   45     1       0.2329972307E+01      72   48    1         0.8204977400E+05      0.3503258507E+06
          0                 2           4            81   45     1      -0.2134464615E+00      66   46    1        -0.9608045749E+04      0.3659627280E+05
          0                 3           2            70   46     1      -0.2755089590E-02      70   46    1        -0.8639898315E+02      0.8823500045E+02

    ------------------------------------------------
       NWT REQUIRED            3 OUTER ITERATIONS 
       AND A TOTAL OF         11 INNER ITERATIONS.
    ------------------------------------------------

 NO OUTPUT CONTROL FOR STRESS PERIOD    2   TIME STEP    4
 
 SOLVING FOR HEAD 
                                                   Max.-Head-Change                         Max.-Flux-Residual
  Residual-Control   Outer-Iter.   Inner-Iter.     Column Row Layer    Maximum-Head-Change  Column Row Layer    Maximum-Flux-Residual          L2-NORM 
          0                 1           5            81   45     1       0.2039522388E+01      72   48    1         0.6933838630E+05      0.3109422673E+06
          0                 2           4            81   45     1      -0.1855588586E+00      72   48    1        -0.6977699668E+04      0.3113532539E+05
          0                 3           1            80   45     1      -0.3377982828E-03      91   67    1        -0.9823930152E+00      0.4683768467E+01

    ------------------------------------------------
       NWT REQUIRED            3 OUTER ITERATIONS 
       AND A TOTAL OF         10 INNER ITERATIONS.
    ------------------------------------------------

 NO OUTPUT CONTROL FOR STRESS PERIOD    2   TIME STEP    5
 
 SOLVING FOR HEAD 
                                                   Max.-Head-Change                         Max.-Flux-Residual
  Residual-Control   Outer-Iter.   Inner-Iter.     Column Row Layer    Maximum-Head-Change  Column Row Layer    Maximum-Flux-Residual          L2-NORM 
          0                 1           5            81   45     1       0.1787875401E+01      81   46    1         0.6047631611E+05      0.2813823614E+06
          0                 2           4            81   45     1      -0.1618944966E+00      72   48    1        -0.5924550028E+04      0.2785788780E+05
          0                 3           1            80   45     1      -0.3696421799E-03      66   92    1         0.1288760230E+02      0.1882877785E+02

    ------------------------------------------------
       NWT REQUIRED            3 OUTER ITERATIONS 
       AND A TOTAL OF         10 INNER ITERATIONS.
    ------------------------------------------------

 NO OUTPUT CONTROL FOR STRESS PERIOD    2   TIME STEP    6
 
 SOLVING FOR HEAD 
                                                   Max.-Head-Change                         Max.-Flux-Residual
  Residual-Control   Outer-Iter.   Inner-Iter.     Column Row Layer    Maximum-Head-Change  Column Row Layer    Maximum-Flux-Residual          L2-NORM 
          0                 1           5            81   46     1       0.1803301233E+01      81   46    1         0.5796424220E+05      0.2593532267E+06
          0                 2           4            81   46     1      -0.1640504582E+00      81   46    1        -0.5801399642E+04      0.2599011630E+05
          0                 3           2            25   61     2      -0.1632849041E-01      25   61    2        -0.8742191736E+03      0.8742866505E+03
          0                 4           2            25   61     2      -0.1473362650E-02      25   61    2        -0.7875028473E+02      0.7876208783E+02

    ------------------------------------------------
       NWT REQUIRED            4 OUTER ITERATIONS 
       AND A TOTAL OF         13 INNER ITERATIONS.
    ------------------------------------------------

 NO OUTPUT CONTROL FOR STRESS PERIOD    2   TIME STEP    7
 
 SOLVING FOR HEAD 
                                                   Max.-Head-Change                         Max.-Flux-Residual
  Residual-Control   Outer-Iter.   Inner-Iter.     Column Row Layer    Maximum-Head-Change  Column Row Layer    Maximum-Flux-Residual          L2-NORM 
          0                 1           5            81   46     1       0.1752470222E+01      81   46    1         0.5637257073E+05      0.2420858639E+06
          0                 2           4            25   61     2      -0.1699344758E+00      81   46    1        -0.5681661283E+04      0.2447685876E+05
          0                 3           2            25   61     2       0.1520189148E-01      25   61    2         0.3452084231E+03      0.3530313554E+03
          0                 4           1            25   61     2       0.1562562920E-04      25   61    2         0.3792901933E+00      0.7769609726E+00

    ------------------------------------------------
       NWT REQUIRED            4 OUTER ITERATIONS 
       AND A TOTAL OF         12 INNER ITERATIONS.
    ------------------------------------------------

 NO OUTPUT CONTROL FOR STRESS PERIOD    2   TIME STEP    8
 
 SOLVING FOR HEAD 
                                                   Max.-Head-Change                         Max.-Flux-Residual
  Residual-Control   Outer-Iter.   Inner-Iter.     Column Row Layer    Maximum-Head-Change  Column Row Layer    Maximum-Flux-Residual          L2-NORM 
          0                 1           5            81   46     1       0.1699604431E+01      81   46    1         0.5475059600E+05      0.2281304769E+06
          0                 2           3            81   46     1      -0.1546556971E+00      81   46    1        -0.5481195844E+04      0.2291549183E+05
          0                 3           2            71   46     1      -0.5312332250E-02      71   46    1        -0.2247762277E+02      0.3568377616E+02

    ------------------------------------------------
       NWT REQUIRED            3 OUTER ITERATIONS 
       AND A TOTAL OF         10 INNER ITERATIONS.
    ------------------------------------------------

 NO OUTPUT CONTROL FOR STRESS PERIOD    2   TIME STEP    9
 
 SOLVING FOR HEAD 
                                                   Max.-Head-Change                         Max.-Flux-Residual
  Residual-Control   Outer-Iter.   Inner-Iter.     Column Row Layer    Maximum-Head-Change  Column Row Layer    Maximum-Flux-Residual          L2-NORM 
          0                 1           5            81   46     1       0.1648304560E+01      81   46    1         0.5313094619E+05      0.2165372582E+06
          0                 2           3            81   46     1      -0.1495855537E+00      81   46    1        -0.5318910481E+04      0.2153214510E+05
          0                 3           1            80   45     1      -0.4353737730E-03      43   31    2         0.3386112899E+01      0.1996559146E+02

    ------------------------------------------------
       NWT REQUIRED            3 OUTER ITERATIONS 
       AND A TOTAL OF          9 INNER ITERATIONS.
    ------------------------------------------------

 NO OUTPUT CONTROL FOR STRESS PERIOD    2   TIME STEP   10
 
 SOLVING FOR HEAD 
                                                   Max.-Head-Change                         Max.-Flux-Residual
  Residual-Control   Outer-Iter.   Inner-Iter.     Column Row Layer    Maximum-Head-Change  Column Row Layer    Maximum-Flux-Residual          L2-NORM 
          0                 1           5            81   46     1       0.1599213948E+01      81   46    1         0.5154161234E+05      0.2069577110E+06
          0                 2           3            81   46     1      -0.1455133546E+00      81   46    1        -0.5159606222E+04      0.2069840106E+05
          0                 3           1            80   45     1      -0.4927038256E-03      13   14    2         0.3356877625E+01      0.1982278099E+02

    ------------------------------------------------
       NWT REQUIRED            3 OUTER ITERATIONS 
       AND A TOTAL OF          9 INNER ITERATIONS.
    ------------------------------------------------

 NO OUTPUT CONTROL FOR STRESS PERIOD    2   TIME STEP   11
 
 SOLVING FOR HEAD 
                                                   Max.-Head-Change                         Max.-Flux-Residual
  Residual-Control   Outer-Iter.   Inner-Iter.     Column Row Layer    Maximum-Head-Change  Column Row Layer    Maximum-Flux-Residual          L2-NORM 
          0                 1           5            81   46     1       0.1551034585E+01      81   46    1         0.4999389207E+05      0.1988499264E+06
          0                 2           3            81   46     1      -0.1411254101E+00      81   46    1        -0.5004503719E+04      0.1988639833E+05
          0                 3           1            80   45     1      -0.5167510981E-03      13   14    2         0.3438339502E+01      0.1907079669E+02

    ------------------------------------------------
       NWT REQUIRED            3 OUTER ITERATIONS 
       AND A TOTAL OF          9 INNER ITERATIONS.
    ------------------------------------------------

 OUTPUT CONTROL FOR STRESS PERIOD    2   TIME STEP   12
    SAVE BUDGET
 UBDSV1 SAVING "         STORAGE" ON UNIT  39 AT TIME STEP 12, STRESS PERIOD   2
 UBDSV2 SAVING "   CONSTANT HEAD" ON UNIT  39 AT TIME STEP 12, STRESS PERIOD   2
 UBDSV1 SAVING "FLOW RIGHT FACE " ON UNIT  39 AT TIME STEP 12, STRESS PERIOD   2
 UBDSV1 SAVING "FLOW FRONT FACE " ON UNIT  39 AT TIME STEP 12, STRESS PERIOD   2
 UBDSV1 SAVING "FLOW LOWER FACE " ON UNIT  39 AT TIME STEP 12, STRESS PERIOD   2
 UBDSV4 SAVING "           WELLS" ON UNIT  39 AT TIME STEP 12, STRESS PERIOD   2
 UBDSV3 SAVING "              ET" ON UNIT  39 AT TIME STEP 12, STRESS PERIOD   2
 UBDSV3 SAVING "        RECHARGE" ON UNIT  39 AT TIME STEP 12, STRESS PERIOD   2
1
  VOLUMETRIC BUDGET FOR ENTIRE MODEL AT END OF TIME STEP   12, STRESS PERIOD   2
  ------------------------------------------------------------------------------

     CUMULATIVE VOLUMES      L**3       RATES FOR THIS TIME STEP      L**3/T
     ------------------                 ------------------------

           IN:                                      IN:
           ---                                      ---
             STORAGE =  1316932736.0000               STORAGE =     3335502.5000
       CONSTANT HEAD =   900783616.0000         CONSTANT HEAD =     1218227.7500
               WELLS =   895944192.0000                 WELLS =     1225642.0000
                  ET =           0.0000                    ET =           0.0000
            RECHARGE =  8669944832.0000              RECHARGE =    13494542.0000

            TOTAL IN = 11783605248.0000              TOTAL IN =    19273914.0000

          OUT:                                     OUT:
          ----                                     ----
             STORAGE =  1098482560.0000               STORAGE =     2380873.0000
       CONSTANT HEAD =  2279514624.0000         CONSTANT HEAD =     3231222.5000
               WELLS =  7256955392.0000                 WELLS =    11472110.0000
                  ET =  1148729088.0000                    ET =     2189686.5000
            RECHARGE =           0.0000              RECHARGE =           0.0000

           TOTAL OUT = 11783681024.0000             TOTAL OUT =    19273892.0000

            IN - OUT =      -75776.0000              IN - OUT =          22.0000

 PERCENT DISCREPANCY =          -0.00     PERCENT DISCREPANCY =           0.00






         TIME SUMMARY AT END OF TIME STEP   12 IN STRESS PERIOD    2
                    SECONDS     MINUTES      HOURS       DAYS        YEARS
                    -----------------------------------------------------------
   TIME STEP LENGTH 2.62800E+06  43800.      730.00      30.417     8.32763E-02
 STRESS PERIOD TIME 3.15360E+07 5.25600E+05  8760.0      365.00     0.99932    
         TOTAL TIME 6.31584E+07 1.05264E+06  17544.      731.00      2.0014    
1
1
                            STRESS PERIOD NO.    3, LENGTH =   365.0000    
                            -----------------------------------------------

                              NUMBER OF TIME STEPS =    12

                               MULTIPLIER FOR DELT =     1.000

                            INITIAL TIME STEP SIZE =   30.41667    

    745 WELLS

 REUSING SURF FROM LAST STRESS PERIOD

 REUSING EVTR FROM LAST STRESS PERIOD

 REUSING EXDP FROM LAST STRESS PERIOD



                           RECHARGE
 READING ON UNIT   16 WITH FORMAT: (15F5.0)            


     63 TIME-VARIANT SPECIFIED-HEAD CELLS
 
 SOLVING FOR HEAD 
                                                   Max.-Head-Change                         Max.-Flux-Residual
  Residual-Control   Outer-Iter.   Inner-Iter.     Column Row Layer    Maximum-Head-Change  Column Row Layer    Maximum-Flux-Residual          L2-NORM 
          0                 1           6            92   77     2      -0.2479258404E+02      65   90    1         0.3317819224E+06      0.7442396029E+06
          0                 2           4            92   77     2       0.7304799274E+01      65   90    1        -0.3283363075E+05      0.7335760669E+05
          0                 3           2            92   77     2       0.3804492555E+00      64   95    1        -0.2440481403E+03      0.4592071391E+03
          0                 4           2            92   77     2       0.1927617789E-01      64   95    1        -0.1963069398E+02      0.2331027533E+02
          0                 5           1            92   77     2       0.9725495768E-03      64   95    1        -0.1775432214E+01      0.1959999617E+01

    ------------------------------------------------
       NWT REQUIRED            5 OUTER ITERATIONS 
       AND A TOTAL OF         15 INNER ITERATIONS.
    ------------------------------------------------

 NO OUTPUT CONTROL FOR STRESS PERIOD    3   TIME STEP    1
 
 SOLVING FOR HEAD 
                                                   Max.-Head-Change                         Max.-Flux-Residual
  Residual-Control   Outer-Iter.   Inner-Iter.     Column Row Layer    Maximum-Head-Change  Column Row Layer    Maximum-Flux-Residual          L2-NORM 
          0                 1           6            64   91     3       0.3589640241E+01      65   90    1         0.1295824706E+06      0.4557811577E+06
          0                 2           4            81   45     1       0.3785608108E+00      65   90    1        -0.1354309747E+05      0.4718035926E+05
          0                 3           2            71   46     1       0.1940313208E-02      61   82    1        -0.7636771205E+02      0.1120466562E+03

    ------------------------------------------------
       NWT REQUIRED            3 OUTER ITERATIONS 
       AND A TOTAL OF         12 INNER ITERATIONS.
    ------------------------------------------------

 NO OUTPUT CONTROL FOR STRESS PERIOD    3   TIME STEP    2
 
 SOLVING FOR HEAD 
                                                   Max.-Head-Change                         Max.-Flux-Residual
  Residual-Control   Outer-Iter.   Inner-Iter.     Column Row Layer    Maximum-Head-Change  Column Row Layer    Maximum-Flux-Residual          L2-NORM 
          0                 1           6            81   45     1      -0.1907417410E+01      76   48    1        -0.6390648867E+05      0.3576264354E+06
          0                 2           4            81   45     1       0.1731745544E+00      76   48    1         0.6374222798E+04      0.3570411754E+05
          0                 3           1            92   77     2       0.4101401585E-03      66   92    1         0.7413043842E+01      0.1317661768E+02

    ------------------------------------------------
       NWT REQUIRED            3 OUTER ITERATIONS 
       AND A TOTAL OF         11 INNER ITERATIONS.
    ------------------------------------------------

 NO OUTPUT CONTROL FOR STRESS PERIOD    3   TIME STEP    3
 
 SOLVING FOR HEAD 
                                                   Max.-Head-Change                         Max.-Flux-Residual
  Residual-Control   Outer-Iter.   Inner-Iter.     Column Row Layer    Maximum-Head-Change  Column Row Layer    Maximum-Flux-Residual          L2-NORM 
          0                 1           5            81   45     1      -0.1660865390E+01      81   45    1        -0.5168601989E+05      0.3078978538E+06
          0                 2           4            81   45     1       0.1508667167E+00      81   45    1         0.5163296932E+04      0.3072790036E+05
          0                 3           2            70   46     1      -0.2435569787E-02      70   46    1        -0.7334219909E+02      0.7404204291E+02

    ------------------------------------------------
       NWT REQUIRED            3 OUTER ITERATIONS 
       AND A TOTAL OF         11 INNER ITERATIONS.
    ------------------------------------------------

 NO OUTPUT CONTROL FOR STRESS PERIOD    3   TIME STEP    4
 
 SOLVING FOR HEAD 
                                                   Max.-Head-Change                         Max.-Flux-Residual
  Residual-Control   Outer-Iter.   Inner-Iter.     Column Row Layer    Maximum-Head-Change  Column Row Layer    Maximum-Flux-Residual          L2-NORM 
          0                 1           5            81   45     1      -0.1447607548E+01      81   45    1        -0.4500229389E+05      0.2761222967E+06
          0                 2           4            81   45     1       0.1315115455E+00      81   45    1         0.4496361568E+04      0.2757604548E+05
          0                 3           2            36   21     1      -0.2747844675E-02      36   21    1        -0.4210189088E+02      0.4726117946E+02

    ------------------------------------------------
       NWT REQUIRED            3 OUTER ITERATIONS 
       AND A TOTAL OF         11 INNER ITERATIONS.
    ------------------------------------------------

 NO OUTPUT CONTROL FOR STRESS PERIOD    3   TIME STEP    5
 
 SOLVING FOR HEAD 
                                                   Max.-Head-Change                         Max.-Flux-Residual
  Residual-Control   Outer-Iter.   Inner-Iter.     Column Row Layer    Maximum-Head-Change  Column Row Layer    Maximum-Flux-Residual          L2-NORM 
          0                 1           5            81   46     1      -0.1317580889E+01      81   46    1        -0.4250578068E+05      0.2538232374E+06
          0                 2           4            81   46     1       0.1197162551E+00      81   46    1         0.4247783482E+04      0.2550637971E+05
          0                 3           1            92   77     2       0.3321915883E-03      13   14    2         0.1744488835E+01      0.7137374278E+01

    ------------------------------------------------
       NWT REQUIRED            3 OUTER ITERATIONS 
       AND A TOTAL OF         10 INNER ITERATIONS.
    ------------------------------------------------

 NO OUTPUT CONTROL FOR STRESS PERIOD    3   TIME STEP    6
 
 SOLVING FOR HEAD 
                                                   Max.-Head-Change                         Max.-Flux-Residual
  Residual-Control   Outer-Iter.   Inner-Iter.     Column Row Layer    Maximum-Head-Change  Column Row Layer    Maximum-Flux-Residual          L2-NORM 
          0                 1           5            81   46     1      -0.1276208767E+01      81   46    1        -0.4119361172E+05      0.2373791473E+06
          0                 2           4            81   46     1       0.1159550152E+00      81   46    1         0.4116638054E+04      0.2376488153E+05
          0                 3           2            15   35     2       0.5205414632E-02      15   35    2         0.1066826042E+03      0.1102051429E+03

    ------------------------------------------------
       NWT REQUIRED            3 OUTER ITERATIONS 
       AND A TOTAL OF         11 INNER ITERATIONS.
    ------------------------------------------------

 NO OUTPUT CONTROL FOR STRESS PERIOD    3   TIME STEP    7

 INTERPOLATION FOR HEAD OBS# 1867, ID 2629-3-217   CHANGED BECAUSE AT LEAST ONE
 NEIGHBORING CELL REQUIRED FOR INTERPOLATION IS DRY OR INACTIVE (OBS2BAS7SE)
 
 SOLVING FOR HEAD 
                                                   Max.-Head-Change                         Max.-Flux-Residual
  Residual-Control   Outer-Iter.   Inner-Iter.     Column Row Layer    Maximum-Head-Change  Column Row Layer    Maximum-Flux-Residual          L2-NORM 
          0                 1           5            81   46     1      -0.1235610622E+01      81   46    1        -0.3989988441E+05      0.2248157863E+06
          0                 2           4            81   46     1       0.1122690592E+00      81   46    1         0.3987367448E+04      0.2247155800E+05
          0                 3           1            67   45     2       0.3591802503E-03      87   51    1        -0.5180499554E+01      0.1096121546E+02

    ------------------------------------------------
       NWT REQUIRED            3 OUTER ITERATIONS 
       AND A TOTAL OF         10 INNER ITERATIONS.
    ------------------------------------------------

 NO OUTPUT CONTROL FOR STRESS PERIOD    3   TIME STEP    8
 
 SOLVING FOR HEAD 
                                                   Max.-Head-Change                         Max.-Flux-Residual
  Residual-Control   Outer-Iter.   Inner-Iter.     Column Row Layer    Maximum-Head-Change  Column Row Layer    Maximum-Flux-Residual          L2-NORM 
          0                 1           5            81   46     1      -0.1195802462E+01      81   46    1        -0.3863023122E+05      0.2149315175E+06
          0                 2           4            81   46     1       0.1583637160E+00      81   46    1         0.6135968249E+04      0.2200480266E+05
          0                 3           2            56  107     1      -0.2113262949E-02      56  107    1        -0.1132373729E+03      0.1134525454E+03

    ------------------------------------------------
       NWT REQUIRED            3 OUTER ITERATIONS 
       AND A TOTAL OF         11 INNER ITERATIONS.
    ------------------------------------------------

 NO OUTPUT CONTROL FOR STRESS PERIOD    3   TIME STEP    9
 
 SOLVING FOR HEAD 
                                                   Max.-Head-Change                         Max.-Flux-Residual
  Residual-Control   Outer-Iter.   Inner-Iter.     Column Row Layer    Maximum-Head-Change  Column Row Layer    Maximum-Flux-Residual          L2-NORM 
          0                 1           5            81   46     1      -0.1015408107E+01      81   46    1        -0.3567593027E+05      0.2066976780E+06
          0                 2           4            56  107     1      -0.1548272977E+00      81   46    1         0.3565822559E+04      0.2085552617E+05
          0                 3           2            56  107     1       0.1382495060E-01      56  107    1         0.2781721199E+03      0.2820902131E+03
          0                 4           1            56  107     1       0.1700909621E-04      56  107    1         0.4084555507E+00      0.8365023079E+00

    ------------------------------------------------
       NWT REQUIRED            4 OUTER ITERATIONS 
       AND A TOTAL OF         12 INNER ITERATIONS.
    ------------------------------------------------

 NO OUTPUT CONTROL FOR STRESS PERIOD    3   TIME STEP   10
 
 SOLVING FOR HEAD 
                                                   Max.-Head-Change                         Max.-Flux-Residual
  Residual-Control   Outer-Iter.   Inner-Iter.     Column Row Layer    Maximum-Head-Change  Column Row Layer    Maximum-Flux-Residual          L2-NORM 
          0                 1           5            81   46     1      -0.9036870827E+00      81   46    1        -0.3174497263E+05      0.1997766014E+06
          0                 2           4            81   46     1       0.8212440607E-01      81   46    1         0.3173103205E+04      0.1997911453E+05
          0                 3           1            92   77     2       0.2522704444E-03      13   14    2         0.1513276994E+01      0.6780317817E+01

    ------------------------------------------------
       NWT REQUIRED            3 OUTER ITERATIONS 
       AND A TOTAL OF         10 INNER ITERATIONS.
    ------------------------------------------------

 NO OUTPUT CONTROL FOR STRESS PERIOD    3   TIME STEP   11
 
 SOLVING FOR HEAD 
                                                   Max.-Head-Change                         Max.-Flux-Residual
  Residual-Control   Outer-Iter.   Inner-Iter.     Column Row Layer    Maximum-Head-Change  Column Row Layer    Maximum-Flux-Residual          L2-NORM 
          0                 1           5            81   46     1      -0.8043899413E+00      81   46    1        -0.2825192262E+05      0.1939991764E+06
          0                 2           4            81   46     1       0.7310357671E-01      81   46    1         0.2824094414E+04      0.1958488660E+05
          0                 3           2            14   17     1      -0.6051372129E-02      14   17    1        -0.4345701986E+03      0.4359309665E+03

    ------------------------------------------------
       NWT REQUIRED            3 OUTER ITERATIONS 
       AND A TOTAL OF         11 INNER ITERATIONS.
    ------------------------------------------------

 OUTPUT CONTROL FOR STRESS PERIOD    3   TIME STEP   12
    SAVE BUDGET
 UBDSV1 SAVING "         STORAGE" ON UNIT  39 AT TIME STEP 12, STRESS PERIOD   3
 UBDSV2 SAVING "   CONSTANT HEAD" ON UNIT  39 AT TIME STEP 12, STRESS PERIOD   3
 UBDSV1 SAVING "FLOW RIGHT FACE " ON UNIT  39 AT TIME STEP 12, STRESS PERIOD   3
 UBDSV1 SAVING "FLOW FRONT FACE " ON UNIT  39 AT TIME STEP 12, STRESS PERIOD   3
 UBDSV1 SAVING "FLOW LOWER FACE " ON UNIT  39 AT TIME STEP 12, STRESS PERIOD   3
 UBDSV4 SAVING "           WELLS" ON UNIT  39 AT TIME STEP 12, STRESS PERIOD   3
 UBDSV3 SAVING "              ET" ON UNIT  39 AT TIME STEP 12, STRESS PERIOD   3
 UBDSV3 SAVING "        RECHARGE" ON UNIT  39 AT TIME STEP 12, STRESS PERIOD   3
1
  VOLUMETRIC BUDGET FOR ENTIRE MODEL AT END OF TIME STEP   12, STRESS PERIOD   3
  ------------------------------------------------------------------------------

     CUMULATIVE VOLUMES      L**3       RATES FOR THIS TIME STEP      L**3/T
     ------------------                 ------------------------

           IN:                                      IN:
           ---                                      ---
             STORAGE =  3970930688.0000               STORAGE =     6564739.0000
       CONSTANT HEAD =  1328732672.0000         CONSTANT HEAD =     1149347.0000
               WELLS =  1343303936.0000                 WELLS =     1225642.0000
                  ET =           0.0000                    ET =           0.0000
            RECHARGE = 11984239616.0000              RECHARGE =     9080258.0000

            TOTAL IN = 18627207168.0000              TOTAL IN =    18019986.0000

          OUT:                                     OUT:
          ----                                     ----
             STORAGE =  1416493312.0000               STORAGE =      414305.9062
       CONSTANT HEAD =  3447085056.0000         CONSTANT HEAD =     3194513.2500
               WELLS = 12030633984.0000                 WELLS =    13078566.0000
                  ET =  1733070208.0000                    ET =     1332637.5000
            RECHARGE =           0.0000              RECHARGE =           0.0000

           TOTAL OUT = 18627282944.0000             TOTAL OUT =    18020024.0000

            IN - OUT =      -75776.0000              IN - OUT =         -38.0000

 PERCENT DISCREPANCY =          -0.00     PERCENT DISCREPANCY =          -0.00






         TIME SUMMARY AT END OF TIME STEP   12 IN STRESS PERIOD    3
                    SECONDS     MINUTES      HOURS       DAYS        YEARS
                    -----------------------------------------------------------
   TIME STEP LENGTH 2.62800E+06  43800.      730.00      30.417     8.32763E-02
 STRESS PERIOD TIME 3.15360E+07 5.25600E+05  8760.0      365.00     0.99932    
         TOTAL TIME 9.46944E+07 1.57824E+06  26304.      1096.0      3.0007    
1
1
                            STRESS PERIOD NO.    4, LENGTH =   365.0000    
                            -----------------------------------------------

                              NUMBER OF TIME STEPS =    12

                               MULTIPLIER FOR DELT =     1.000

                            INITIAL TIME STEP SIZE =   30.41667    

    755 WELLS

 REUSING SURF FROM LAST STRESS PERIOD

 REUSING EVTR FROM LAST STRESS PERIOD

 REUSING EXDP FROM LAST STRESS PERIOD



                           RECHARGE
 READING ON UNIT   16 WITH FORMAT: (15F5.0)            


     63 TIME-VARIANT SPECIFIED-HEAD CELLS
 
 SOLVING FOR HEAD 
                                                   Max.-Head-Change                         Max.-Flux-Residual
  Residual-Control   Outer-Iter.   Inner-Iter.     Column Row Layer    Maximum-Head-Change  Column Row Layer    Maximum-Flux-Residual          L2-NORM 
          0                 1           6            90   52     3      -0.6902396219E+01      29   18    2        -0.1277808556E+06      0.4585889652E+06
          0                 2           5            90   52     3       0.3921840484E+00      29   18    2         0.1277805347E+05      0.4563906517E+05
          0                 3           2            91   52     3       0.1081995694E-01      14   17    1         0.1833263507E+03      0.2223107409E+03
          0                 4           1            92   77     2       0.5429078001E-03      85   51    1        -0.1525417760E+01      0.1769087879E+01

    ------------------------------------------------
       NWT REQUIRED            4 OUTER ITERATIONS 
       AND A TOTAL OF         14 INNER ITERATIONS.
    ------------------------------------------------

 NO OUTPUT CONTROL FOR STRESS PERIOD    4   TIME STEP    1
 
 SOLVING FOR HEAD 
                                                   Max.-Head-Change                         Max.-Flux-Residual
  Residual-Control   Outer-Iter.   Inner-Iter.     Column Row Layer    Maximum-Head-Change  Column Row Layer    Maximum-Flux-Residual          L2-NORM 
          0                 1           6            31   20     1      -0.1191844115E+01      31   20    1        -0.5320266886E+05      0.2520017406E+06
          0                 2           4            31   20     1       0.1071435926E+00      31   20    1         0.5228235485E+04      0.2515768463E+05
          0                 3           1            68   47     2      -0.4687621837E-03      59   60    1        -0.1207401568E+02      0.2362885739E+02

    ------------------------------------------------
       NWT REQUIRED            3 OUTER ITERATIONS 
       AND A TOTAL OF         11 INNER ITERATIONS.
    ------------------------------------------------

 NO OUTPUT CONTROL FOR STRESS PERIOD    4   TIME STEP    2
 
 SOLVING FOR HEAD 
                                                   Max.-Head-Change                         Max.-Flux-Residual
  Residual-Control   Outer-Iter.   Inner-Iter.     Column Row Layer    Maximum-Head-Change  Column Row Layer    Maximum-Flux-Residual          L2-NORM 
          0                 1           6            31   20     1      -0.7882638738E+00      31   20    1        -0.3232578523E+05      0.1955593042E+06
          0                 2           4            31   20     1       0.7174588129E-01      31   20    1         0.3242652591E+04      0.1954289623E+05
          0                 3           2            28   15     1       0.1525486399E-02      28   15    1         0.3793457876E+02      0.4706477250E+02

    ------------------------------------------------
       NWT REQUIRED            3 OUTER ITERATIONS 
       AND A TOTAL OF         12 INNER ITERATIONS.
    ------------------------------------------------

 NO OUTPUT CONTROL FOR STRESS PERIOD    4   TIME STEP    3
 
 SOLVING FOR HEAD 
                                                   Max.-Head-Change                         Max.-Flux-Residual
  Residual-Control   Outer-Iter.   Inner-Iter.     Column Row Layer    Maximum-Head-Change  Column Row Layer    Maximum-Flux-Residual          L2-NORM 
          0                 1           6            70   47     1      -0.6288753839E+00      70   47    1        -0.2504820909E+05      0.1694120750E+06
          0                 2           4            70   47     1       0.5711037432E-01      70   47    1         0.2501467100E+04      0.1693319491E+05
          0                 3           1            92   77     2       0.4261844736E-03      31   20    1         0.2721955106E+01      0.8524078763E+01

    ------------------------------------------------
       NWT REQUIRED            3 OUTER ITERATIONS 
       AND A TOTAL OF         11 INNER ITERATIONS.
    ------------------------------------------------

 NO OUTPUT CONTROL FOR STRESS PERIOD    4   TIME STEP    4
 
 SOLVING FOR HEAD 
                                                   Max.-Head-Change                         Max.-Flux-Residual
  Residual-Control   Outer-Iter.   Inner-Iter.     Column Row Layer    Maximum-Head-Change  Column Row Layer    Maximum-Flux-Residual          L2-NORM 
          0                 1           6            71   47     1      -0.5639680543E+00      70   47    1        -0.2229508489E+05      0.1543272077E+06
          0                 2           4            71   47     1       0.5121964407E-01      70   47    1         0.2227067469E+04      0.1542822312E+05
          0                 3           1            92   77     2       0.3916205744E-03      84   51    1         0.4196075841E+01      0.9117401367E+01

    ------------------------------------------------
       NWT REQUIRED            3 OUTER ITERATIONS 
       AND A TOTAL OF         11 INNER ITERATIONS.
    ------------------------------------------------

 NO OUTPUT CONTROL FOR STRESS PERIOD    4   TIME STEP    5
 
 SOLVING FOR HEAD 
                                                   Max.-Head-Change                         Max.-Flux-Residual
  Residual-Control   Outer-Iter.   Inner-Iter.     Column Row Layer    Maximum-Head-Change  Column Row Layer    Maximum-Flux-Residual          L2-NORM 
          0                 1           6            71   47     1      -0.5214258985E+00      71   47    1        -0.1999100938E+05      0.1443081882E+06
          0                 2           4            71   47     1       0.4742334041E-01      71   47    1         0.1996616633E+04      0.1443376622E+05
          0                 3           1            92   77     2       0.3899477709E-03      30   19    1         0.9420535862E+00      0.7199273269E+01

    ------------------------------------------------
       NWT REQUIRED            3 OUTER ITERATIONS 
       AND A TOTAL OF         11 INNER ITERATIONS.
    ------------------------------------------------

 NO OUTPUT CONTROL FOR STRESS PERIOD    4   TIME STEP    6
 
 SOLVING FOR HEAD 
                                                   Max.-Head-Change                         Max.-Flux-Residual
  Residual-Control   Outer-Iter.   Inner-Iter.     Column Row Layer    Maximum-Head-Change  Column Row Layer    Maximum-Flux-Residual          L2-NORM 
          0                 1           6            71   47     1      -0.4827164075E+00      71   47    1        -0.1848034305E+05      0.1370842085E+06
          0                 2           4            71   47     1       0.4384498503E-01      71   47    1         0.1845856809E+04      0.1371475323E+05
          0                 3           2            59   39     1       0.2238077347E-02      59   39    1         0.1737654507E+02      0.2528129904E+02

    ------------------------------------------------
       NWT REQUIRED            3 OUTER ITERATIONS 
       AND A TOTAL OF         12 INNER ITERATIONS.
    ------------------------------------------------

 NO OUTPUT CONTROL FOR STRESS PERIOD    4   TIME STEP    7
 
 SOLVING FOR HEAD 
                                                   Max.-Head-Change                         Max.-Flux-Residual
  Residual-Control   Outer-Iter.   Inner-Iter.     Column Row Layer    Maximum-Head-Change  Column Row Layer    Maximum-Flux-Residual          L2-NORM 
          0                 1           6            71   47     1      -0.4477043801E+00      71   47    1        -0.1711059953E+05      0.1315956041E+06
          0                 2           4            71   47     1       0.4066639616E-01      71   47    1         0.1709158241E+04      0.1315623808E+05
          0                 3           1            92   77     2       0.3568701974E-03      30   19    1         0.8176367432E+00      0.6659402928E+01

    ------------------------------------------------
       NWT REQUIRED            3 OUTER ITERATIONS 
       AND A TOTAL OF         11 INNER ITERATIONS.
    ------------------------------------------------

 NO OUTPUT CONTROL FOR STRESS PERIOD    4   TIME STEP    8
 
 SOLVING FOR HEAD 
                                                   Max.-Head-Change                         Max.-Flux-Residual
  Residual-Control   Outer-Iter.   Inner-Iter.     Column Row Layer    Maximum-Head-Change  Column Row Layer    Maximum-Flux-Residual          L2-NORM 
          0                 1           5            71   47     1      -0.4159401696E+00      71   47    1        -0.1586945711E+05      0.1272866637E+06
          0                 2           4            71   47     1       0.3778187885E-01      71   47    1         0.1585280490E+04      0.1274989935E+05
          0                 3           1            92   77     2       0.3395189432E-03      66   95    1        -0.1537404461E+01      0.6674683648E+01

    ------------------------------------------------
       NWT REQUIRED            3 OUTER ITERATIONS 
       AND A TOTAL OF         10 INNER ITERATIONS.
    ------------------------------------------------

 NO OUTPUT CONTROL FOR STRESS PERIOD    4   TIME STEP    9
 
 SOLVING FOR HEAD 
                                                   Max.-Head-Change                         Max.-Flux-Residual
  Residual-Control   Outer-Iter.   Inner-Iter.     Column Row Layer    Maximum-Head-Change  Column Row Layer    Maximum-Flux-Residual          L2-NORM 
          0                 1           5            71   47     1      -0.3870868796E+00      71   47    1        -0.1474345433E+05      0.1238274347E+06
          0                 2           4            71   47     1       0.3516342975E-01      71   47    1         0.1472894450E+04      0.1238042354E+05
          0                 3           1            67    9     2       0.3830736716E-03      30   19    1         0.6844041646E+00      0.6115749054E+01

    ------------------------------------------------
       NWT REQUIRED            3 OUTER ITERATIONS 
       AND A TOTAL OF         10 INNER ITERATIONS.
    ------------------------------------------------

 NO OUTPUT CONTROL FOR STRESS PERIOD    4   TIME STEP   10
 
 SOLVING FOR HEAD 
                                                   Max.-Head-Change                         Max.-Flux-Residual
  Residual-Control   Outer-Iter.   Inner-Iter.     Column Row Layer    Maximum-Head-Change  Column Row Layer    Maximum-Flux-Residual          L2-NORM 
          0                 1           5            71   47     1      -0.3608422327E+00      71   47    1        -0.1372060246E+05      0.1209842237E+06
          0                 2           4            56   34     1      -0.3180642904E+00      71   47    1         0.1370797003E+04      0.1215323210E+05
          0                 3           2            56   34     1       0.2547531881E-01      36   21    1        -0.1251578763E+03      0.1576517350E+03
          0                 4           1            56   34     1       0.2793237959E-03      36   21    1        -0.1136389920E+02      0.1195260773E+02

    ------------------------------------------------
       NWT REQUIRED            4 OUTER ITERATIONS 
       AND A TOTAL OF         12 INNER ITERATIONS.
    ------------------------------------------------

 NO OUTPUT CONTROL FOR STRESS PERIOD    4   TIME STEP   11
 
 SOLVING FOR HEAD 
                                                   Max.-Head-Change                         Max.-Flux-Residual
  Residual-Control   Outer-Iter.   Inner-Iter.     Column Row Layer    Maximum-Head-Change  Column Row Layer    Maximum-Flux-Residual          L2-NORM 
          0                 1           5            71   47     1      -0.3369412696E+00      71   47    1        -0.1279025355E+05      0.1186007198E+06
          0                 2           4            36   21     1      -0.1002826316E+00      36   21    1        -0.1480402767E+04      0.1198432559E+05
          0                 3           2            36   21     1       0.8921223335E-02      36   21    1         0.1447307895E+03      0.1753084651E+03

    ------------------------------------------------
       NWT REQUIRED            3 OUTER ITERATIONS 
       AND A TOTAL OF         11 INNER ITERATIONS.
    ------------------------------------------------

 OUTPUT CONTROL FOR STRESS PERIOD    4   TIME STEP   12
    SAVE BUDGET
 UBDSV1 SAVING "         STORAGE" ON UNIT  39 AT TIME STEP 12, STRESS PERIOD   4
 UBDSV2 SAVING "   CONSTANT HEAD" ON UNIT  39 AT TIME STEP 12, STRESS PERIOD   4
 UBDSV1 SAVING "FLOW RIGHT FACE " ON UNIT  39 AT TIME STEP 12, STRESS PERIOD   4
 UBDSV1 SAVING "FLOW FRONT FACE " ON UNIT  39 AT TIME STEP 12, STRESS PERIOD   4
 UBDSV1 SAVING "FLOW LOWER FACE " ON UNIT  39 AT TIME STEP 12, STRESS PERIOD   4
 UBDSV4 SAVING "           WELLS" ON UNIT  39 AT TIME STEP 12, STRESS PERIOD   4
 UBDSV3 SAVING "              ET" ON UNIT  39 AT TIME STEP 12, STRESS PERIOD   4
 UBDSV3 SAVING "        RECHARGE" ON UNIT  39 AT TIME STEP 12, STRESS PERIOD   4
1
  VOLUMETRIC BUDGET FOR ENTIRE MODEL AT END OF TIME STEP   12, STRESS PERIOD   4
  ------------------------------------------------------------------------------

     CUMULATIVE VOLUMES      L**3       RATES FOR THIS TIME STEP      L**3/T
     ------------------                 ------------------------

           IN:                                      IN:
           ---                                      ---
             STORAGE =  5888287744.0000               STORAGE =     4908178.5000
       CONSTANT HEAD =  1748470528.0000         CONSTANT HEAD =     1148917.2500
               WELLS =  1790663936.0000                 WELLS =     1225642.0000
                  ET =           0.0000                    ET =           0.0000
            RECHARGE = 16069704704.0000              RECHARGE =    11193061.0000

            TOTAL IN = 25497124864.0000              TOTAL IN =    18475798.0000

          OUT:                                     OUT:
          ----                                     ----
             STORAGE =  1590081792.0000               STORAGE =      154243.9688
       CONSTANT HEAD =  4630823936.0000         CONSTANT HEAD =     3270967.2500
               WELLS = 17083975680.0000                 WELLS =    13844774.0000
                  ET =  2192306944.0000                    ET =     1205808.5000
            RECHARGE =           0.0000              RECHARGE =           0.0000

           TOTAL OUT = 25497188352.0000             TOTAL OUT =    18475794.0000

            IN - OUT =      -63488.0000              IN - OUT =           4.0000

 PERCENT DISCREPANCY =          -0.00     PERCENT DISCREPANCY =           0.00






         TIME SUMMARY AT END OF TIME STEP   12 IN STRESS PERIOD    4
                    SECONDS     MINUTES      HOURS       DAYS        YEARS
                    -----------------------------------------------------------
   TIME STEP LENGTH 2.62800E+06  43800.      730.00      30.417     8.32763E-02
 STRESS PERIOD TIME 3.15360E+07 5.25600E+05  8760.0      365.00     0.99932    
         TOTAL TIME 1.26230E+08 2.10384E+06  35064.      1461.0      4.0000    
1
1
                            STRESS PERIOD NO.    5, LENGTH =   366.0000    
                            -----------------------------------------------

                              NUMBER OF TIME STEPS =    12

                               MULTIPLIER FOR DELT =     1.000

                            INITIAL TIME STEP SIZE =   30.50000    

    767 WELLS

 REUSING SURF FROM LAST STRESS PERIOD

 REUSING EVTR FROM LAST STRESS PERIOD

 REUSING EXDP FROM LAST STRESS PERIOD



                           RECHARGE
 READING ON UNIT   16 WITH FORMAT: (15F5.0)            


     63 TIME-VARIANT SPECIFIED-HEAD CELLS
 
 SOLVING FOR HEAD 
                                                   Max.-Head-Change                         Max.-Flux-Residual
  Residual-Control   Outer-Iter.   Inner-Iter.     Column Row Layer    Maximum-Head-Change  Column Row Layer    Maximum-Flux-Residual          L2-NORM 
          0                 1           6            92   77     2       0.1637544220E+02      81   45    1         0.9740293046E+05      0.3764514780E+06
          0                 2           4            92   77     2      -0.6185400163E+00      81   45    1        -0.9820779455E+04      0.3876350581E+05
          0                 3           2            92   77     2      -0.3395888700E-01      63   81    1        -0.1391121461E+03      0.2015494348E+03
          0                 4           2            92   77     2      -0.1837468716E-02      63   81    1        -0.1069146931E+02      0.1106880200E+02

    ------------------------------------------------
       NWT REQUIRED            4 OUTER ITERATIONS 
       AND A TOTAL OF         14 INNER ITERATIONS.
    ------------------------------------------------

 NO OUTPUT CONTROL FOR STRESS PERIOD    5   TIME STEP    1
 
 SOLVING FOR HEAD 
                                                   Max.-Head-Change                         Max.-Flux-Residual
  Residual-Control   Outer-Iter.   Inner-Iter.     Column Row Layer    Maximum-Head-Change  Column Row Layer    Maximum-Flux-Residual          L2-NORM 
          0                 1           6            81   45     1       0.2751117368E+01      81   45    1         0.8502510582E+05      0.2566962751E+06
          0                 2           4            81   45     1      -0.2504063633E+00      81   45    1        -0.8515937039E+04      0.2550443201E+05
          0                 3           1            92   77     2      -0.2367949400E-03      79   49    1        -0.3598926639E+01      0.9249432649E+01

    ------------------------------------------------
       NWT REQUIRED            3 OUTER ITERATIONS 
       AND A TOTAL OF         11 INNER ITERATIONS.
    ------------------------------------------------

 NO OUTPUT CONTROL FOR STRESS PERIOD    5   TIME STEP    2
 
 SOLVING FOR HEAD 
                                                   Max.-Head-Change                         Max.-Flux-Residual
  Residual-Control   Outer-Iter.   Inner-Iter.     Column Row Layer    Maximum-Head-Change  Column Row Layer    Maximum-Flux-Residual          L2-NORM 
          0                 1           6            81   45     1       0.2406098464E+01      81   45    1         0.7432156348E+05      0.2182152139E+06
          0                 2           4            81   45     1      -0.2188884039E+00      81   45    1        -0.7442191839E+04      0.2185259658E+05
          0                 3           2            81   45     2      -0.9280755630E-03      82   45    2         0.5388401843E+01      0.1061191619E+02

    ------------------------------------------------
       NWT REQUIRED            3 OUTER ITERATIONS 
       AND A TOTAL OF         12 INNER ITERATIONS.
    ------------------------------------------------

 NO OUTPUT CONTROL FOR STRESS PERIOD    5   TIME STEP    3
 
 SOLVING FOR HEAD 
                                                   Max.-Head-Change                         Max.-Flux-Residual
  Residual-Control   Outer-Iter.   Inner-Iter.     Column Row Layer    Maximum-Head-Change  Column Row Layer    Maximum-Flux-Residual          L2-NORM 
          0                 1           6            81   45     1       0.2105560923E+01      81   46    1         0.6603969461E+05      0.1973609844E+06
          0                 2           4            81   45     1      -0.1928825037E+00      81   45    1        -0.6507797667E+04      0.1951268688E+05
          0                 3           1            80   45     1      -0.2510000689E-03      13   14    2         0.8811455071E+00      0.6817364843E+01

    ------------------------------------------------
       NWT REQUIRED            3 OUTER ITERATIONS 
       AND A TOTAL OF         11 INNER ITERATIONS.
    ------------------------------------------------

 NO OUTPUT CONTROL FOR STRESS PERIOD    5   TIME STEP    4
 
 SOLVING FOR HEAD 
                                                   Max.-Head-Change                         Max.-Flux-Residual
  Residual-Control   Outer-Iter.   Inner-Iter.     Column Row Layer    Maximum-Head-Change  Column Row Layer    Maximum-Flux-Residual          L2-NORM 
          0                 1           6            81   46     1       0.1848110479E+01      81   46    1         0.5923668594E+05      0.1829162691E+06
          0                 2           4            81   46     1      -0.1681276832E+00      81   46    1        -0.5928725178E+04      0.1838525805E+05
          0                 3           1            78   45     2      -0.4348811333E-03      79   45    2         0.1463267369E+02      0.2175616602E+02

    ------------------------------------------------
       NWT REQUIRED            3 OUTER ITERATIONS 
       AND A TOTAL OF         11 INNER ITERATIONS.
    ------------------------------------------------

 NO OUTPUT CONTROL FOR STRESS PERIOD    5   TIME STEP    5
 
 SOLVING FOR HEAD 
                                                   Max.-Head-Change                         Max.-Flux-Residual
  Residual-Control   Outer-Iter.   Inner-Iter.     Column Row Layer    Maximum-Head-Change  Column Row Layer    Maximum-Flux-Residual          L2-NORM 
          0                 1           6            81   46     1       0.1796008588E+01      81   46    1         0.5761499650E+05      0.1732471710E+06
          0                 2           4            81   46     1      -0.1633889296E+00      81   46    1        -0.5766511853E+04      0.1737036198E+05
          0                 3           1            80   45     1      -0.3116722334E-03      13   14    2         0.1007583022E+01      0.6688793691E+01

    ------------------------------------------------
       NWT REQUIRED            3 OUTER ITERATIONS 
       AND A TOTAL OF         11 INNER ITERATIONS.
    ------------------------------------------------

 NO OUTPUT CONTROL FOR STRESS PERIOD    5   TIME STEP    6
 
 SOLVING FOR HEAD 
                                                   Max.-Head-Change                         Max.-Flux-Residual
  Residual-Control   Outer-Iter.   Inner-Iter.     Column Row Layer    Maximum-Head-Change  Column Row Layer    Maximum-Flux-Residual          L2-NORM 
          0                 1           6            81   46     1       0.1744081761E+01      81   46    1         0.5599129369E+05      0.1655447725E+06
          0                 2           4            81   46     1      -0.1586662728E+00      81   46    1        -0.5604019444E+04      0.1655935761E+05
          0                 3           1            80   45     1      -0.3392498319E-03      13   14    2         0.1037328005E+01      0.6664160130E+01

    ------------------------------------------------
       NWT REQUIRED            3 OUTER ITERATIONS 
       AND A TOTAL OF         11 INNER ITERATIONS.
    ------------------------------------------------

 NO OUTPUT CONTROL FOR STRESS PERIOD    5   TIME STEP    7
 
 SOLVING FOR HEAD 
                                                   Max.-Head-Change                         Max.-Flux-Residual
  Residual-Control   Outer-Iter.   Inner-Iter.     Column Row Layer    Maximum-Head-Change  Column Row Layer    Maximum-Flux-Residual          L2-NORM 
          0                 1           6            81   46     1       0.1692531139E+01      81   46    1         0.5437299381E+05      0.1592614102E+06
          0                 2           4            81   46     1      -0.1548780076E+00      81   46    1        -0.5478786613E+04      0.1637088657E+05
          0                 3           2            58  101     1       0.4102487228E-02      58  101    1         0.1123087617E+03      0.1177076299E+03

    ------------------------------------------------
       NWT REQUIRED            3 OUTER ITERATIONS 
       AND A TOTAL OF         12 INNER ITERATIONS.
    ------------------------------------------------

 NO OUTPUT CONTROL FOR STRESS PERIOD    5   TIME STEP    8
 
 SOLVING FOR HEAD 
                                                   Max.-Head-Change                         Max.-Flux-Residual
  Residual-Control   Outer-Iter.   Inner-Iter.     Column Row Layer    Maximum-Head-Change  Column Row Layer    Maximum-Flux-Residual          L2-NORM 
          0                 1           6            81   46     1       0.1639300954E+01      81   46    1         0.5273547439E+05      0.1538738397E+06
          0                 2           4            81   46     1      -0.1487471790E+00      81   46    1        -0.5279437023E+04      0.1508113836E+05
          0                 3           1            80   45     1      -0.3211258124E-03      13   14    2         0.1086870819E+01      0.6652583383E+01

    ------------------------------------------------
       NWT REQUIRED            3 OUTER ITERATIONS 
       AND A TOTAL OF         11 INNER ITERATIONS.
    ------------------------------------------------

 NO OUTPUT CONTROL FOR STRESS PERIOD    5   TIME STEP    9
 
 SOLVING FOR HEAD 
                                                   Max.-Head-Change                         Max.-Flux-Residual
  Residual-Control   Outer-Iter.   Inner-Iter.     Column Row Layer    Maximum-Head-Change  Column Row Layer    Maximum-Flux-Residual          L2-NORM 
          0                 1           6            81   46     1       0.1589346038E+01      81   46    1         0.5112068738E+05      0.1496771780E+06
          0                 2           4            81   46     1      -0.1446130771E+00      81   46    1        -0.5117570322E+04      0.1497042101E+05
          0                 3           1            80   45     1      -0.3896010332E-03      13   14    2         0.1086342216E+01      0.6624401631E+01

    ------------------------------------------------
       NWT REQUIRED            3 OUTER ITERATIONS 
       AND A TOTAL OF         11 INNER ITERATIONS.
    ------------------------------------------------

 NO OUTPUT CONTROL FOR STRESS PERIOD    5   TIME STEP   10
 
 SOLVING FOR HEAD 
                                                   Max.-Head-Change                         Max.-Flux-Residual
  Residual-Control   Outer-Iter.   Inner-Iter.     Column Row Layer    Maximum-Head-Change  Column Row Layer    Maximum-Flux-Residual          L2-NORM 
          0                 1           6            81   46     1       0.1540350605E+01      81   46    1         0.4954966439E+05      0.1462384359E+06
          0                 2           4            81   46     1      -0.1401510624E+00      81   46    1        -0.4960125623E+04      0.1462565947E+05
          0                 3           1            80   45     1      -0.4037396969E-03      13   14    2         0.1094850093E+01      0.6606638297E+01

    ------------------------------------------------
       NWT REQUIRED            3 OUTER ITERATIONS 
       AND A TOTAL OF         11 INNER ITERATIONS.
    ------------------------------------------------

 NO OUTPUT CONTROL FOR STRESS PERIOD    5   TIME STEP   11
 
 SOLVING FOR HEAD 
                                                   Max.-Head-Change                         Max.-Flux-Residual
  Residual-Control   Outer-Iter.   Inner-Iter.     Column Row Layer    Maximum-Head-Change  Column Row Layer    Maximum-Flux-Residual          L2-NORM 
          0                 1           6            81   46     1       0.1492768386E+01      81   46    1         0.4802277149E+05      0.1432102662E+06
          0                 2           3            81   46     1      -0.1358342103E+00      81   46    1        -0.4807112670E+04      0.1433703026E+05
          0                 3           1            80   45     1      -0.4474724289E-03      13   14    2         0.3603413343E+01      0.2113412063E+02

    ------------------------------------------------
       NWT REQUIRED            3 OUTER ITERATIONS 
       AND A TOTAL OF         10 INNER ITERATIONS.
    ------------------------------------------------

 OUTPUT CONTROL FOR STRESS PERIOD    5   TIME STEP   12
    SAVE BUDGET
 UBDSV1 SAVING "         STORAGE" ON UNIT  39 AT TIME STEP 12, STRESS PERIOD   5
 UBDSV2 SAVING "   CONSTANT HEAD" ON UNIT  39 AT TIME STEP 12, STRESS PERIOD   5
 UBDSV1 SAVING "FLOW RIGHT FACE " ON UNIT  39 AT TIME STEP 12, STRESS PERIOD   5
 UBDSV1 SAVING "FLOW FRONT FACE " ON UNIT  39 AT TIME STEP 12, STRESS PERIOD   5
 UBDSV1 SAVING "FLOW LOWER FACE " ON UNIT  39 AT TIME STEP 12, STRESS PERIOD   5
 UBDSV4 SAVING "           WELLS" ON UNIT  39 AT TIME STEP 12, STRESS PERIOD   5
 UBDSV3 SAVING "              ET" ON UNIT  39 AT TIME STEP 12, STRESS PERIOD   5
 UBDSV3 SAVING "        RECHARGE" ON UNIT  39 AT TIME STEP 12, STRESS PERIOD   5
1
  VOLUMETRIC BUDGET FOR ENTIRE MODEL AT END OF TIME STEP   12, STRESS PERIOD   5
  ------------------------------------------------------------------------------

     CUMULATIVE VOLUMES      L**3       RATES FOR THIS TIME STEP      L**3/T
     ------------------                 ------------------------

           IN:                                      IN:
           ---                                      ---
             STORAGE =  7794426880.0000               STORAGE =     5031440.5000
       CONSTANT HEAD =  2185642496.0000         CONSTANT HEAD =     1213879.6250
               WELLS =  2239249664.0000                 WELLS =     1225642.0000
                  ET =           0.0000                    ET =           0.0000
            RECHARGE = 20202797056.0000              RECHARGE =    11292591.0000

            TOTAL IN = 32422117376.0000              TOTAL IN =    18763554.0000

          OUT:                                     OUT:
          ----                                     ----
             STORAGE =  1892847872.0000               STORAGE =      590452.5000
       CONSTANT HEAD =  5833555968.0000         CONSTANT HEAD =     3301618.2500
               WELLS = 22005049344.0000                 WELLS =    13445562.0000
                  ET =  2690698496.0000                    ET =     1425753.6250
            RECHARGE =           0.0000              RECHARGE =           0.0000

           TOTAL OUT = 32422152192.0000             TOTAL OUT =    18763386.0000

            IN - OUT =      -34816.0000              IN - OUT =         168.0000

 PERCENT DISCREPANCY =          -0.00     PERCENT DISCREPANCY =           0.00






         TIME SUMMARY AT END OF TIME STEP   12 IN STRESS PERIOD    5
                    SECONDS     MINUTES      HOURS       DAYS        YEARS
                    -----------------------------------------------------------
   TIME STEP LENGTH 2.63520E+06  43920.      732.00      30.500     8.35044E-02
 STRESS PERIOD TIME 3.16224E+07 5.27040E+05  8784.0      366.00      1.0021    
         TOTAL TIME 1.57853E+08 2.63088E+06  43848.      1827.0      5.0021    
1
1
                            STRESS PERIOD NO.    6, LENGTH =   365.0000    
                            -----------------------------------------------

                              NUMBER OF TIME STEPS =    12

                               MULTIPLIER FOR DELT =     1.000

                            INITIAL TIME STEP SIZE =   30.41667    

    812 WELLS

 REUSING SURF FROM LAST STRESS PERIOD

 REUSING EVTR FROM LAST STRESS PERIOD

 REUSING EXDP FROM LAST STRESS PERIOD



                           RECHARGE
 READING ON UNIT   16 WITH FORMAT: (15F5.0)            


     63 TIME-VARIANT SPECIFIED-HEAD CELLS
 
 SOLVING FOR HEAD 
                                                   Max.-Head-Change                         Max.-Flux-Residual
  Residual-Control   Outer-Iter.   Inner-Iter.     Column Row Layer    Maximum-Head-Change  Column Row Layer    Maximum-Flux-Residual          L2-NORM 
          0                 1           7            88   51     3      -0.3889157933E+01      29   20    2        -0.1729925637E+06      0.5155144874E+06
          0                 2           5            88   51     3       0.3657063769E+00      60   61    1         0.1930537649E+05      0.5301205447E+05
          0                 3           2            88   50     3       0.1710970480E-01      88   51    3        -0.9176563957E+02      0.1339875830E+03
          0                 4           2            88   51     3      -0.1395249410E-02      88   51    3        -0.6478518227E+01      0.6999632262E+01

    ------------------------------------------------
       NWT REQUIRED            4 OUTER ITERATIONS 
       AND A TOTAL OF         16 INNER ITERATIONS.
    ------------------------------------------------

 NO OUTPUT CONTROL FOR STRESS PERIOD    6   TIME STEP    1
 
 SOLVING FOR HEAD 
                                                   Max.-Head-Change                         Max.-Flux-Residual
  Residual-Control   Outer-Iter.   Inner-Iter.     Column Row Layer    Maximum-Head-Change  Column Row Layer    Maximum-Flux-Residual          L2-NORM 
          0                 1           6            42   32     1      -0.2067394022E+01      42   32    1        -0.1053512959E+06      0.3061664819E+06
          0                 2           4            42   32     1       0.1835460443E+00      42   32    1         0.1013969789E+05      0.3032687246E+05
          0                 3           1            82   53     1      -0.2963925787E-03      19   75    1         0.3635080814E+01      0.1099938811E+02

    ------------------------------------------------
       NWT REQUIRED            3 OUTER ITERATIONS 
       AND A TOTAL OF         11 INNER ITERATIONS.
    ------------------------------------------------

 NO OUTPUT CONTROL FOR STRESS PERIOD    6   TIME STEP    2
 
 SOLVING FOR HEAD 
                                                   Max.-Head-Change                         Max.-Flux-Residual
  Residual-Control   Outer-Iter.   Inner-Iter.     Column Row Layer    Maximum-Head-Change  Column Row Layer    Maximum-Flux-Residual          L2-NORM 
          0                 1           6            42   32     1      -0.1499302531E+01      42   32    1        -0.7339488581E+05      0.2269768437E+06
          0                 2           4            31   18     1      -0.2603016379E+00      42   32    1         0.7154905364E+04      0.2295454807E+05
          0                 3           2            31   18     1       0.2320750343E-01      31   18    1         0.3841303493E+03      0.4000800301E+03
          0                 4           1            31   18     1       0.3912859765E-04      31   18    1         0.6416404247E+00      0.1475798278E+01

    ------------------------------------------------
       NWT REQUIRED            4 OUTER ITERATIONS 
       AND A TOTAL OF         13 INNER ITERATIONS.
    ------------------------------------------------

 NO OUTPUT CONTROL FOR STRESS PERIOD    6   TIME STEP    3

 INTERPOLATION FOR HEAD OBS# 5691, ID 1179-6-115   CHANGED BECAUSE AT LEAST ONE
 NEIGHBORING CELL REQUIRED FOR INTERPOLATION IS DRY OR INACTIVE (OBS2BAS7SE)
 
 SOLVING FOR HEAD 
                                                   Max.-Head-Change                         Max.-Flux-Residual
  Residual-Control   Outer-Iter.   Inner-Iter.     Column Row Layer    Maximum-Head-Change  Column Row Layer    Maximum-Flux-Residual          L2-NORM 
          0                 1           6            42   32     1      -0.1131571046E+01      42   32    1        -0.5318285000E+05      0.1892516123E+06
          0                 2           4            81   45     1       0.1595070625E+00      81   45    1         0.5486627437E+04      0.1941743376E+05
          0                 3           1            80   45     3      -0.1905479442E-03      72   49    1        -0.4311140544E+01      0.9028414814E+01

    ------------------------------------------------
       NWT REQUIRED            3 OUTER ITERATIONS 
       AND A TOTAL OF         11 INNER ITERATIONS.
    ------------------------------------------------

 NO OUTPUT CONTROL FOR STRESS PERIOD    6   TIME STEP    4
 
 SOLVING FOR HEAD 
                                                   Max.-Head-Change                         Max.-Flux-Residual
  Residual-Control   Outer-Iter.   Inner-Iter.     Column Row Layer    Maximum-Head-Change  Column Row Layer    Maximum-Flux-Residual          L2-NORM 
          0                 1           6            81   45     1      -0.8971456975E+00      42   32    1        -0.4011881238E+05      0.1669784673E+06
          0                 2           4            81   45     1       0.8148503178E-01      42   32    1         0.3961735209E+04      0.1665444968E+05
          0                 3           1            82   53     1      -0.1577718345E-03      66    8    3         0.2823234860E+02      0.2880305706E+02

    ------------------------------------------------
       NWT REQUIRED            3 OUTER ITERATIONS 
       AND A TOTAL OF         11 INNER ITERATIONS.
    ------------------------------------------------

 NO OUTPUT CONTROL FOR STRESS PERIOD    6   TIME STEP    5
 
 SOLVING FOR HEAD 
                                                   Max.-Head-Change                         Max.-Flux-Residual
  Residual-Control   Outer-Iter.   Inner-Iter.     Column Row Layer    Maximum-Head-Change  Column Row Layer    Maximum-Flux-Residual          L2-NORM 
          0                 1           6            81   45     1      -0.7782439104E+00      42   32    1        -0.3142260003E+05      0.1521789464E+06
          0                 2           4            81   45     1       0.7072213285E-01      42   32    1         0.3113162270E+04      0.1520171368E+05
          0                 3           1            79   46     1      -0.1468686034E-03      66    8    3        -0.1477205406E+03      0.1478141499E+03

    ------------------------------------------------
       NWT REQUIRED            3 OUTER ITERATIONS 
       AND A TOTAL OF         11 INNER ITERATIONS.
    ------------------------------------------------

 NO OUTPUT CONTROL FOR STRESS PERIOD    6   TIME STEP    6
 
 SOLVING FOR HEAD 
                                                   Max.-Head-Change                         Max.-Flux-Residual
  Residual-Control   Outer-Iter.   Inner-Iter.     Column Row Layer    Maximum-Head-Change  Column Row Layer    Maximum-Flux-Residual          L2-NORM 
          0                 1           6            81   45     1      -0.6754028959E+00      42   32    1        -0.2544632863E+05      0.1417180747E+06
          0                 2           4            81   45     1       0.6138073181E-01      42   32    1         0.2526625065E+04      0.1416741519E+05
          0                 3           1            79   46     1      -0.1406439009E-03      66    8    3        -0.2880377461E+03      0.2880798708E+03

    ------------------------------------------------
       NWT REQUIRED            3 OUTER ITERATIONS 
       AND A TOTAL OF         11 INNER ITERATIONS.
    ------------------------------------------------

 NO OUTPUT CONTROL FOR STRESS PERIOD    6   TIME STEP    7
 
 SOLVING FOR HEAD 
                                                   Max.-Head-Change                         Max.-Flux-Residual
  Residual-Control   Outer-Iter.   Inner-Iter.     Column Row Layer    Maximum-Head-Change  Column Row Layer    Maximum-Flux-Residual          L2-NORM 
          0                 1           6            81   45     1      -0.5864504029E+00      42   32    1        -0.2120696623E+05      0.1339685696E+06
          0                 2           4            81   45     1       0.5329979183E-01      42   32    1         0.2108892779E+04      0.1339811826E+05
          0                 3           1            79   46     1      -0.1347152905E-03      66    8    3        -0.4186780711E+03      0.4187046307E+03

    ------------------------------------------------
       NWT REQUIRED            3 OUTER ITERATIONS 
       AND A TOTAL OF         11 INNER ITERATIONS.
    ------------------------------------------------

 NO OUTPUT CONTROL FOR STRESS PERIOD    6   TIME STEP    8
 
 SOLVING FOR HEAD 
                                                   Max.-Head-Change                         Max.-Flux-Residual
  Residual-Control   Outer-Iter.   Inner-Iter.     Column Row Layer    Maximum-Head-Change  Column Row Layer    Maximum-Flux-Residual          L2-NORM 
          0                 1           5            81   45     1      -0.5094841241E+00      42   32    1        -0.1810835841E+05      0.1280167451E+06
          0                 2           4            42   35     2       0.5196219935E-01      42   35    2         0.5246111608E+04      0.1413160985E+05
          0                 3           1            30   22     3       0.1301976069E-03      66    8    3        -0.5421589505E+03      0.5421891696E+03

    ------------------------------------------------
       NWT REQUIRED            3 OUTER ITERATIONS 
       AND A TOTAL OF         10 INNER ITERATIONS.
    ------------------------------------------------

 NO OUTPUT CONTROL FOR STRESS PERIOD    6   TIME STEP    9

 INTERPOLATION FOR HEAD OBS# 1011, ID 2643-6-284   CHANGED BECAUSE AT LEAST ONE
 NEIGHBORING CELL REQUIRED FOR INTERPOLATION IS DRY OR INACTIVE (OBS2BAS7SE)
 
 SOLVING FOR HEAD 
                                                   Max.-Head-Change                         Max.-Flux-Residual
  Residual-Control   Outer-Iter.   Inner-Iter.     Column Row Layer    Maximum-Head-Change  Column Row Layer    Maximum-Flux-Residual          L2-NORM 
          0                 1           5            81   45     1      -0.4428665755E+00      42   32    1        -0.1577599455E+05      0.1232380807E+06
          0                 2           4            78   61     1      -0.3210846228E+00      19   74    2         0.1599117341E+04      0.1245044423E+05
          0                 3           2            78   61     1       0.2480177836E-01      66    8    3        -0.6603877764E+03      0.6618545876E+03
          0                 4           1            78   61     1       0.3625761886E-03      66    8    3        -0.6599454172E+03      0.6599459907E+03

    ------------------------------------------------
       NWT REQUIRED            4 OUTER ITERATIONS 
       AND A TOTAL OF         12 INNER ITERATIONS.
    ------------------------------------------------

 NO OUTPUT CONTROL FOR STRESS PERIOD    6   TIME STEP   10
 
 SOLVING FOR HEAD 
                                                   Max.-Head-Change                         Max.-Flux-Residual
  Residual-Control   Outer-Iter.   Inner-Iter.     Column Row Layer    Maximum-Head-Change  Column Row Layer    Maximum-Flux-Residual          L2-NORM 
          0                 1           5            81   46     1      -0.4029243352E+00      42   32    1        -0.1398371786E+05      0.1195222520E+06
          0                 2           4            58   79     2       0.4477745961E-01      58   79    2         0.1811517340E+04      0.1211519395E+05
          0                 3           2            58   79     1      -0.8022742577E-02      66    8    3        -0.7742939411E+03      0.8860869789E+03

    ------------------------------------------------
       NWT REQUIRED            3 OUTER ITERATIONS 
       AND A TOTAL OF         11 INNER ITERATIONS.
    ------------------------------------------------

 NO OUTPUT CONTROL FOR STRESS PERIOD    6   TIME STEP   11
 
 SOLVING FOR HEAD 
                                                   Max.-Head-Change                         Max.-Flux-Residual
  Residual-Control   Outer-Iter.   Inner-Iter.     Column Row Layer    Maximum-Head-Change  Column Row Layer    Maximum-Flux-Residual          L2-NORM 
          0                 1           5            81   46     1      -0.3889150931E+00      81   46    1        -0.1259726988E+05      0.1163919910E+06
          0                 2           4            58   79     1      -0.7153018596E-01      58   79    1        -0.1302598672E+04      0.1174194695E+05
          0                 3           2            58   79     1       0.6386619683E-02      66    8    3        -0.8851962071E+03      0.8945907990E+03
          0                 4           1            66    8     3      -0.2173265028E-04      66    8    3        -0.8845873634E+03      0.8845876113E+03
          0                 5           1            66    8     3      -0.2171780168E-04      66    8    3        -0.8839851610E+03      0.8839853263E+03
          0                 6           1            66    8     3      -0.2170285955E-04      66    8    3        -0.8833809966E+03      0.8833811588E+03
          0                 7           1            66    8     3      -0.2168788240E-04      66    8    3        -0.8827728274E+03      0.8827729891E+03
          0                 8           1            66    8     3      -0.2167285423E-04      66    8    3        -0.8821632312E+03      0.8821633928E+03
          0                 9           1            66    8     3      -0.2165777153E-04      66    8    3        -0.8815516718E+03      0.8815518333E+03
          0                10           1            66    8     3      -0.2164263431E-04      66    8    3        -0.8809379370E+03      0.8809380984E+03
                                                   Max.-Head-Change                         Max.-Flux-Residual
  Residual-Control   Outer-Iter.   Inner-Iter.     Column Row Layer    Maximum-Head-Change  Column Row Layer    Maximum-Flux-Residual          L2-NORM 
          0                11           1            66    8     3      -0.2162744057E-04      66    8    3        -0.8803219628E+03      0.8803221241E+03
          0                12           1            66    8     3      -0.2161219230E-04      66    8    3        -0.8797037358E+03      0.8797038970E+03
          0                13           1            66    8     3      -0.2159688850E-04      66    8    3        -0.8790832572E+03      0.8790834183E+03
          0                14           1            66    8     3      -0.2158152918E-04      66    8    3        -0.8784605327E+03      0.8784606936E+03
          0                15           1            66    8     3      -0.2156611584E-04      66    8    3        -0.8778355690E+03      0.8778357298E+03
          0                16           1            66    8     3      -0.2155064747E-04      66    8    3        -0.8772083734E+03      0.8772085341E+03
          0                17           1            66    8     3      -0.2153512408E-04      66    8    3        -0.8765789532E+03      0.8765791138E+03
          0                18           1            66    8     3      -0.2151954666E-04      66    8    3        -0.8759473157E+03      0.8759474762E+03
          0                19           1            66    8     3      -0.2150391522E-04      66    8    3        -0.8753134682E+03      0.8753136286E+03
          0                20           1            66    8     3      -0.2148822976E-04      66    8    3        -0.8746774183E+03      0.8746775786E+03
                                                   Max.-Head-Change                         Max.-Flux-Residual
  Residual-Control   Outer-Iter.   Inner-Iter.     Column Row Layer    Maximum-Head-Change  Column Row Layer    Maximum-Flux-Residual          L2-NORM 
          0                21           1            66    8     3      -0.2147249077E-04      66    8    3        -0.8740391733E+03      0.8740393334E+03
          0                22           1            66    8     3      -0.2145669776E-04      66    8    3        -0.8733987405E+03      0.8733989006E+03
          0                23           1            66    8     3      -0.2144085173E-04      66    8    3        -0.8727561276E+03      0.8727562875E+03
          0                24           1            66    8     3      -0.2142495217E-04      66    8    3        -0.8721113418E+03      0.8721115017E+03
          0                25           2            66    8     3      -0.3177395094E-01      66    8    3        -0.8714650853E+03      0.8714652451E+03
          0                26           2            66    8     3       0.2887665073E-02      66    8    3         0.1043919644E+03      0.1134037149E+03

    ------------------------------------------------
       NWT REQUIRED           26 OUTER ITERATIONS 
       AND A TOTAL OF         36 INNER ITERATIONS.
    ------------------------------------------------

 OUTPUT CONTROL FOR STRESS PERIOD    6   TIME STEP   12
    SAVE BUDGET
    SAVE HEAD FOR LAYERS:   1  2  3
 UBDSV1 SAVING "         STORAGE" ON UNIT  39 AT TIME STEP 12, STRESS PERIOD   6
 UBDSV2 SAVING "   CONSTANT HEAD" ON UNIT  39 AT TIME STEP 12, STRESS PERIOD   6
 UBDSV1 SAVING "FLOW RIGHT FACE " ON UNIT  39 AT TIME STEP 12, STRESS PERIOD   6
 UBDSV1 SAVING "FLOW FRONT FACE " ON UNIT  39 AT TIME STEP 12, STRESS PERIOD   6
 UBDSV1 SAVING "FLOW LOWER FACE " ON UNIT  39 AT TIME STEP 12, STRESS PERIOD   6
 UBDSV4 SAVING "           WELLS" ON UNIT  39 AT TIME STEP 12, STRESS PERIOD   6
 UBDSV3 SAVING "              ET" ON UNIT  39 AT TIME STEP 12, STRESS PERIOD   6
 UBDSV3 SAVING "        RECHARGE" ON UNIT  39 AT TIME STEP 12, STRESS PERIOD   6

 HEAD WILL BE SAVED ON UNIT   31 AT END OF TIME STEP   12, STRESS PERIOD    6
1
  VOLUMETRIC BUDGET FOR ENTIRE MODEL AT END OF TIME STEP   12, STRESS PERIOD   6
  ------------------------------------------------------------------------------

     CUMULATIVE VOLUMES      L**3       RATES FOR THIS TIME STEP      L**3/T
     ------------------                 ------------------------

           IN:                                      IN:
           ---                                      ---
             STORAGE =  9582059520.0000               STORAGE =     4449377.5000
       CONSTANT HEAD =  2620892160.0000         CONSTANT HEAD =     1186611.3750
               WELLS =  2686609664.0000                 WELLS =     1225642.0000
                  ET =           0.0000                    ET =           0.0000
            RECHARGE = 25174079488.0000              RECHARGE =    13619969.0000

            TOTAL IN = 40063639552.0000              TOTAL IN =    20481600.0000

          OUT:                                     OUT:
          ----                                     ----
             STORAGE =  2164013312.0000               STORAGE =      292905.8750
       CONSTANT HEAD =  7030766592.0000         CONSTANT HEAD =     3312946.5000
               WELLS = 27675617280.0000                 WELLS =    15535810.0000
                  ET =  3193364736.0000                    ET =     1339950.5000
            RECHARGE =           0.0000              RECHARGE =           0.0000

           TOTAL OUT = 40063762432.0000             TOTAL OUT =    20481612.0000

            IN - OUT =     -122880.0000              IN - OUT =         -12.0000

 PERCENT DISCREPANCY =          -0.00     PERCENT DISCREPANCY =          -0.00






         TIME SUMMARY AT END OF TIME STEP   12 IN STRESS PERIOD    6
                    SECONDS     MINUTES      HOURS       DAYS        YEARS
                    -----------------------------------------------------------
   TIME STEP LENGTH 2.62800E+06  43800.      730.00      30.417     8.32763E-02
 STRESS PERIOD TIME 3.15360E+07 5.25600E+05  8760.0      365.00     0.99932    
         TOTAL TIME 1.89389E+08 3.15648E+06  52608.      2192.0      6.0014    
1
1
                            STRESS PERIOD NO.    7, LENGTH =   365.0000    
                            -----------------------------------------------

                              NUMBER OF TIME STEPS =    12

                               MULTIPLIER FOR DELT =     1.000

                            INITIAL TIME STEP SIZE =   30.41667    

    823 WELLS

 REUSING SURF FROM LAST STRESS PERIOD

 REUSING EVTR FROM LAST STRESS PERIOD

 REUSING EXDP FROM LAST STRESS PERIOD



                           RECHARGE
 READING ON UNIT   16 WITH FORMAT: (15F5.0)            


     63 TIME-VARIANT SPECIFIED-HEAD CELLS
 
 SOLVING FOR HEAD 
                                                   Max.-Head-Change                         Max.-Flux-Residual
  Residual-Control   Outer-Iter.   Inner-Iter.     Column Row Layer    Maximum-Head-Change  Column Row Layer    Maximum-Flux-Residual          L2-NORM 
          0                 1           6            92   77     2       0.5390493621E+01      59   49    1        -0.1420838291E+06      0.5134542214E+06
          0                 2           4            19    5     2       0.2758939505E+00      59   49    1         0.1336609511E+05      0.5136669990E+05
          0                 3           2            92   77     2       0.5226166788E-02      35   23    1        -0.2856454905E+02      0.5255085527E+02

    ------------------------------------------------
       NWT REQUIRED            3 OUTER ITERATIONS 
       AND A TOTAL OF         12 INNER ITERATIONS.
    ------------------------------------------------

 NO OUTPUT CONTROL FOR STRESS PERIOD    7   TIME STEP    1
 
 SOLVING FOR HEAD 
                                                   Max.-Head-Change                         Max.-Flux-Residual
  Residual-Control   Outer-Iter.   Inner-Iter.     Column Row Layer    Maximum-Head-Change  Column Row Layer    Maximum-Flux-Residual          L2-NORM 
          0                 1           6            70   47     1       0.1621123429E+01      59   49    1        -0.6649350002E+05      0.3222525217E+06
          0                 2           4            70   47     1      -0.1479284718E+00      67   47    1        -0.7328318588E+04      0.3248423748E+05
          0                 3           1            34   63     1       0.5295054111E-03      34   63    1         0.7651939787E+01      0.1135361640E+02

    ------------------------------------------------
       NWT REQUIRED            3 OUTER ITERATIONS 
       AND A TOTAL OF         11 INNER ITERATIONS.
    ------------------------------------------------

 NO OUTPUT CONTROL FOR STRESS PERIOD    7   TIME STEP    2
 
 SOLVING FOR HEAD 
                                                   Max.-Head-Change                         Max.-Flux-Residual
  Residual-Control   Outer-Iter.   Inner-Iter.     Column Row Layer    Maximum-Head-Change  Column Row Layer    Maximum-Flux-Residual          L2-NORM 
          0                 1           6            70   47     1       0.1415795742E+01      70   47    1         0.5744386307E+05      0.2586823081E+06
          0                 2           4            57  102     2      -0.1358464719E+00      70   47    1        -0.5766411763E+04      0.2594067512E+05
          0                 3           2            57  102     2       0.1181330708E-01      57  102    2         0.9373804384E+02      0.1011339790E+03
          0                 4           1            57  102     2       0.4925269299E-04      57  102    2         0.4245522209E+00      0.8811908943E+00

    ------------------------------------------------
       NWT REQUIRED            4 OUTER ITERATIONS 
       AND A TOTAL OF         13 INNER ITERATIONS.
    ------------------------------------------------

 NO OUTPUT CONTROL FOR STRESS PERIOD    7   TIME STEP    3
 
 SOLVING FOR HEAD 
                                                   Max.-Head-Change                         Max.-Flux-Residual
  Residual-Control   Outer-Iter.   Inner-Iter.     Column Row Layer    Maximum-Head-Change  Column Row Layer    Maximum-Flux-Residual          L2-NORM 
          0                 1           6            70   47     1       0.1242045722E+01      70   47    1         0.5017167543E+05      0.2250394986E+06
          0                 2           4            70   47     1      -0.1128041618E+00      70   47    1        -0.5032923404E+04      0.2252365211E+05
          0                 3           1            15   33     3       0.2187426696E-03      16   33    3        -0.1109936158E+02      0.1922931070E+02

    ------------------------------------------------
       NWT REQUIRED            3 OUTER ITERATIONS 
       AND A TOTAL OF         11 INNER ITERATIONS.
    ------------------------------------------------

 NO OUTPUT CONTROL FOR STRESS PERIOD    7   TIME STEP    4
 
 SOLVING FOR HEAD 
                                                   Max.-Head-Change                         Max.-Flux-Residual
  Residual-Control   Outer-Iter.   Inner-Iter.     Column Row Layer    Maximum-Head-Change  Column Row Layer    Maximum-Flux-Residual          L2-NORM 
          0                 1           6            70   47     1       0.1096004134E+01      70   47    1         0.4403287793E+05      0.2034998154E+06
          0                 2           4            70   47     1      -0.9985974269E-01      70   47    1        -0.4414591845E+04      0.2036613228E+05
          0                 3           1            88   67     1      -0.1291053474E-03      13   14    2         0.1016168624E+01      0.6024910103E+01

    ------------------------------------------------
       NWT REQUIRED            3 OUTER ITERATIONS 
       AND A TOTAL OF         11 INNER ITERATIONS.
    ------------------------------------------------

 NO OUTPUT CONTROL FOR STRESS PERIOD    7   TIME STEP    5
 
 SOLVING FOR HEAD 
                                                   Max.-Head-Change                         Max.-Flux-Residual
  Residual-Control   Outer-Iter.   Inner-Iter.     Column Row Layer    Maximum-Head-Change  Column Row Layer    Maximum-Flux-Residual          L2-NORM 
          0                 1           6            70   47     1       0.9711588703E+00      70   47    1         0.3884323137E+05      0.1882798611E+06
          0                 2           4            70   47     1      -0.8851011415E-01      70   47    1        -0.3892458865E+04      0.1895259190E+05
          0                 3           1            80   45     1      -0.1308568919E-03      13   14    2         0.1101550400E+01      0.5905890784E+01

    ------------------------------------------------
       NWT REQUIRED            3 OUTER ITERATIONS 
       AND A TOTAL OF         11 INNER ITERATIONS.
    ------------------------------------------------

 NO OUTPUT CONTROL FOR STRESS PERIOD    7   TIME STEP    6
 
 SOLVING FOR HEAD 
                                                   Max.-Head-Change                         Max.-Flux-Residual
  Residual-Control   Outer-Iter.   Inner-Iter.     Column Row Layer    Maximum-Head-Change  Column Row Layer    Maximum-Flux-Residual          L2-NORM 
          0                 1           5            71   47     1       0.8927145767E+00      70   47    1         0.3441781387E+05      0.1768672947E+06
          0                 2           4            71   47     1      -0.8127751275E-01      70   47    1        -0.3447705393E+04      0.1769038045E+05
          0                 3           1            80   45     1      -0.1329850780E-03      13   14    2         0.1086426407E+01      0.5772490366E+01

    ------------------------------------------------
       NWT REQUIRED            3 OUTER ITERATIONS 
       AND A TOTAL OF         10 INNER ITERATIONS.
    ------------------------------------------------

 NO OUTPUT CONTROL FOR STRESS PERIOD    7   TIME STEP    7
 
 SOLVING FOR HEAD 
                                                   Max.-Head-Change                         Max.-Flux-Residual
  Residual-Control   Outer-Iter.   Inner-Iter.     Column Row Layer    Maximum-Head-Change  Column Row Layer    Maximum-Flux-Residual          L2-NORM 
          0                 1           5            71   47     1       0.8267505885E+00      71   47    1         0.3163632539E+05      0.1680163560E+06
          0                 2           4            71   47     1      -0.7526834977E-01      71   47    1        -0.3169703199E+04      0.1689279903E+05
          0                 3           1            80   45     1      -0.1348922003E-03      13   14    2         0.1086733580E+01      0.5794196239E+01

    ------------------------------------------------
       NWT REQUIRED            3 OUTER ITERATIONS 
       AND A TOTAL OF         10 INNER ITERATIONS.
    ------------------------------------------------

 NO OUTPUT CONTROL FOR STRESS PERIOD    7   TIME STEP    8
 
 SOLVING FOR HEAD 
                                                   Max.-Head-Change                         Max.-Flux-Residual
  Residual-Control   Outer-Iter.   Inner-Iter.     Column Row Layer    Maximum-Head-Change  Column Row Layer    Maximum-Flux-Residual          L2-NORM 
          0                 1           5            71   47     1       0.7660876836E+00      71   47    1         0.2929893994E+05      0.1609769275E+06
          0                 2           4            71   47     1      -0.6974119722E-01      71   47    1        -0.2935312631E+04      0.1620743408E+05
          0                 3           2            49   33     1       0.4391923154E-02      49   33    1         0.1873379198E+03      0.2006397876E+03

    ------------------------------------------------
       NWT REQUIRED            3 OUTER ITERATIONS 
       AND A TOTAL OF         11 INNER ITERATIONS.
    ------------------------------------------------

 NO OUTPUT CONTROL FOR STRESS PERIOD    7   TIME STEP    9
 
 SOLVING FOR HEAD 
                                                   Max.-Head-Change                         Max.-Flux-Residual
  Residual-Control   Outer-Iter.   Inner-Iter.     Column Row Layer    Maximum-Head-Change  Column Row Layer    Maximum-Flux-Residual          L2-NORM 
          0                 1           5            71   47     1       0.7103667715E+00      71   47    1         0.2714941386E+05      0.1552737569E+06
          0                 2           4            83   45     2       0.1006609389E+00      66   46    1        -0.3257064950E+04      0.1584357204E+05
          0                 3           2            83   45     2      -0.9122532282E-02      83   45    2        -0.6053294437E+02      0.6295189371E+02

    ------------------------------------------------
       NWT REQUIRED            3 OUTER ITERATIONS 
       AND A TOTAL OF         11 INNER ITERATIONS.
    ------------------------------------------------

 NO OUTPUT CONTROL FOR STRESS PERIOD    7   TIME STEP   10

 INTERPOLATION FOR HEAD OBS# 3772, ID 1405-7-308   CHANGED BECAUSE AT LEAST ONE
 NEIGHBORING CELL REQUIRED FOR INTERPOLATION IS DRY OR INACTIVE (OBS2BAS7SE)
 
 SOLVING FOR HEAD 
                                                   Max.-Head-Change                         Max.-Flux-Residual
  Residual-Control   Outer-Iter.   Inner-Iter.     Column Row Layer    Maximum-Head-Change  Column Row Layer    Maximum-Flux-Residual          L2-NORM 
          0                 1           5            71   47     1       0.6582329534E+00      71   47    1         0.2516666048E+05      0.1504889042E+06
          0                 2           4            71   47     1      -0.5991983472E-01      71   47    1        -0.2520981440E+04      0.1505115262E+05
          0                 3           2            43   23     2       0.3370772109E-02      25    9    2         0.5087955695E+01      0.9274188539E+01

    ------------------------------------------------
       NWT REQUIRED            3 OUTER ITERATIONS 
       AND A TOTAL OF         11 INNER ITERATIONS.
    ------------------------------------------------

 NO OUTPUT CONTROL FOR STRESS PERIOD    7   TIME STEP   11

 INTERPOLATION FOR HEAD OBS#  880, ID 2758-7-344   CHANGED BECAUSE AT LEAST ONE
 NEIGHBORING CELL REQUIRED FOR INTERPOLATION IS DRY OR INACTIVE (OBS2BAS7SE)

 INTERPOLATION FOR HEAD OBS# 6996, ID 683-7-360    CHANGED BECAUSE AT LEAST ONE
 NEIGHBORING CELL REQUIRED FOR INTERPOLATION IS DRY OR INACTIVE (OBS2BAS7SE)
 
 SOLVING FOR HEAD 
                                                   Max.-Head-Change                         Max.-Flux-Residual
  Residual-Control   Outer-Iter.   Inner-Iter.     Column Row Layer    Maximum-Head-Change  Column Row Layer    Maximum-Flux-Residual          L2-NORM 
          0                 1           5            71   47     1       0.6103497967E+00      71   47    1         0.2332742204E+05      0.1464141576E+06
          0                 2           4            71   47     1      -0.5555388783E-01      71   47    1        -0.2336543920E+04      0.1470245940E+05
          0                 3           1            43   23     2       0.1932056849E-03      25    9    2        -0.1166877990E+04      0.1166895149E+04
          0                 4           1            25    9     2      -0.8970687421E-04      25    9    2        -0.1162471547E+04      0.1162475405E+04
          0                 5           1            25    9     2      -0.8931192186E-04      25    9    2        -0.1157701800E+04      0.1157704670E+04
          0                 6           2            25    9     2      -0.2148793646E-01      25    9    2        -0.1152565247E+04      0.1152567981E+04
          0                 7           2            25    9     2       0.1952212371E-02      25    9    2         0.1471967940E+03      0.1625891408E+03

    ------------------------------------------------
       NWT REQUIRED            7 OUTER ITERATIONS 
       AND A TOTAL OF         16 INNER ITERATIONS.
    ------------------------------------------------

 OUTPUT CONTROL FOR STRESS PERIOD    7   TIME STEP   12
    SAVE BUDGET
 UBDSV1 SAVING "         STORAGE" ON UNIT  39 AT TIME STEP 12, STRESS PERIOD   7
 UBDSV2 SAVING "   CONSTANT HEAD" ON UNIT  39 AT TIME STEP 12, STRESS PERIOD   7
 UBDSV1 SAVING "FLOW RIGHT FACE " ON UNIT  39 AT TIME STEP 12, STRESS PERIOD   7
 UBDSV1 SAVING "FLOW FRONT FACE " ON UNIT  39 AT TIME STEP 12, STRESS PERIOD   7
 UBDSV1 SAVING "FLOW LOWER FACE " ON UNIT  39 AT TIME STEP 12, STRESS PERIOD   7
 UBDSV4 SAVING "           WELLS" ON UNIT  39 AT TIME STEP 12, STRESS PERIOD   7
 UBDSV3 SAVING "              ET" ON UNIT  39 AT TIME STEP 12, STRESS PERIOD   7
 UBDSV3 SAVING "        RECHARGE" ON UNIT  39 AT TIME STEP 12, STRESS PERIOD   7
1
  VOLUMETRIC BUDGET FOR ENTIRE MODEL AT END OF TIME STEP   12, STRESS PERIOD   7
  ------------------------------------------------------------------------------

     CUMULATIVE VOLUMES      L**3       RATES FOR THIS TIME STEP      L**3/T
     ------------------                 ------------------------

           IN:                                      IN:
           ---                                      ---
             STORAGE = 11551242240.0000               STORAGE =     5147223.0000
       CONSTANT HEAD =  3044108288.0000         CONSTANT HEAD =     1144421.0000
               WELLS =  3133969664.0000                 WELLS =     1225642.0000
                  ET =           0.0000                    ET =           0.0000
            RECHARGE = 30530394112.0000              RECHARGE =    14674819.0000

            TOTAL IN = 48259719168.0000              TOTAL IN =    22192104.0000

          OUT:                                     OUT:
          ----                                     ----
             STORAGE =  2565576448.0000               STORAGE =      740772.5625
       CONSTANT HEAD =  8239342080.0000         CONSTANT HEAD =     3315373.0000
               WELLS = 33699096576.0000                 WELLS =    16502659.0000
                  ET =  3755813632.0000                    ET =     1633316.6250
            RECHARGE =           0.0000              RECHARGE =           0.0000

           TOTAL OUT = 48259825664.0000             TOTAL OUT =    22192120.0000

            IN - OUT =     -106496.0000              IN - OUT =         -16.0000

 PERCENT DISCREPANCY =          -0.00     PERCENT DISCREPANCY =          -0.00






         TIME SUMMARY AT END OF TIME STEP   12 IN STRESS PERIOD    7
                    SECONDS     MINUTES      HOURS       DAYS        YEARS
                    -----------------------------------------------------------
   TIME STEP LENGTH 2.62800E+06  43800.      730.00      30.417     8.32763E-02
 STRESS PERIOD TIME 3.15360E+07 5.25600E+05  8760.0      365.00     0.99932    
         TOTAL TIME 2.20925E+08 3.68208E+06  61368.      2557.0      7.0007    
1
1
                            STRESS PERIOD NO.    8, LENGTH =   365.0000    
                            -----------------------------------------------

                              NUMBER OF TIME STEPS =    12

                               MULTIPLIER FOR DELT =     1.000

                            INITIAL TIME STEP SIZE =   30.41667    

    891 WELLS

 REUSING SURF FROM LAST STRESS PERIOD

 REUSING EVTR FROM LAST STRESS PERIOD

 REUSING EXDP FROM LAST STRESS PERIOD



                           RECHARGE
 READING ON UNIT   16 WITH FORMAT: (15F5.0)            


     63 TIME-VARIANT SPECIFIED-HEAD CELLS
 
 SOLVING FOR HEAD 
                                                   Max.-Head-Change                         Max.-Flux-Residual
  Residual-Control   Outer-Iter.   Inner-Iter.     Column Row Layer    Maximum-Head-Change  Column Row Layer    Maximum-Flux-Residual          L2-NORM 
          0                 1           7            80   47     3      -0.1853696167E+02      24   22    2        -0.3873100144E+06      0.9210288125E+06
          0                 2           5            80   47     3       0.1687601802E+01      24   22    2         0.3873096458E+05      0.9119434695E+05
          0                 3           2            92   77     2       0.2442513137E-01      60  106    1         0.1132647143E+03      0.2233746988E+03
          0                 4           2            92   77     2       0.1290204146E-02      63   85    2         0.7756476195E+01      0.8325898293E+01

    ------------------------------------------------
       NWT REQUIRED            4 OUTER ITERATIONS 
       AND A TOTAL OF         16 INNER ITERATIONS.
    ------------------------------------------------

 NO OUTPUT CONTROL FOR STRESS PERIOD    8   TIME STEP    1
 
 SOLVING FOR HEAD 
                                                   Max.-Head-Change                         Max.-Flux-Residual
  Residual-Control   Outer-Iter.   Inner-Iter.     Column Row Layer    Maximum-Head-Change  Column Row Layer    Maximum-Flux-Residual          L2-NORM 
          0                 1           6            80   47     3      -0.5245873200E+01      57   44    1        -0.1050911001E+06      0.5024988290E+06
          0                 2           4            80   47     3       0.4554092235E+00      57   44    1         0.1021300185E+05      0.4998744185E+05
          0                 3           2            25    9     1       0.8471279743E-03      25    9    2        -0.1178308900E+02      0.2354145773E+02

    ------------------------------------------------
       NWT REQUIRED            3 OUTER ITERATIONS 
       AND A TOTAL OF         12 INNER ITERATIONS.
    ------------------------------------------------

 NO OUTPUT CONTROL FOR STRESS PERIOD    8   TIME STEP    2
 
 SOLVING FOR HEAD 
                                                   Max.-Head-Change                         Max.-Flux-Residual
  Residual-Control   Outer-Iter.   Inner-Iter.     Column Row Layer    Maximum-Head-Change  Column Row Layer    Maximum-Flux-Residual          L2-NORM 
          0                 1           6            81   46     1      -0.2639465937E+01      81   46    1        -0.8489956255E+05      0.3892916879E+06
          0                 2           4            81   46     1       0.2396994902E+00      81   46    1         0.8478923931E+04      0.3893451992E+05
          0                 3           2            86   50     1       0.1337006080E-02      86   50    1         0.6577259510E+02      0.6813464397E+02

    ------------------------------------------------
       NWT REQUIRED            3 OUTER ITERATIONS 
       AND A TOTAL OF         12 INNER ITERATIONS.
    ------------------------------------------------

 NO OUTPUT CONTROL FOR STRESS PERIOD    8   TIME STEP    3
 
 SOLVING FOR HEAD 
                                                   Max.-Head-Change                         Max.-Flux-Residual
  Residual-Control   Outer-Iter.   Inner-Iter.     Column Row Layer    Maximum-Head-Change  Column Row Layer    Maximum-Flux-Residual          L2-NORM 
          0                 1           6            81   46     1      -0.2562605392E+01      81   46    1        -0.8252622195E+05      0.3414066190E+06
          0                 2           4            81   46     1       0.2327214234E+00      81   46    1         0.8241887577E+04      0.3407846817E+05
          0                 3           1            92   77     2       0.2927283639E-03      60   62    1        -0.3257469743E+02      0.3963904795E+02

    ------------------------------------------------
       NWT REQUIRED            3 OUTER ITERATIONS 
       AND A TOTAL OF         11 INNER ITERATIONS.
    ------------------------------------------------

 NO OUTPUT CONTROL FOR STRESS PERIOD    8   TIME STEP    4
 
 SOLVING FOR HEAD 
                                                   Max.-Head-Change                         Max.-Flux-Residual
  Residual-Control   Outer-Iter.   Inner-Iter.     Column Row Layer    Maximum-Head-Change  Column Row Layer    Maximum-Flux-Residual          L2-NORM 
          0                 1           6            81   46     1      -0.2486297166E+01      81   46    1        -0.8012179551E+05      0.3141306761E+06
          0                 2           4            81   46     1       0.3523129996E+00      81   46    1         0.1363344194E+05      0.3319742523E+05
          0                 3           1            80   45     1       0.3368188205E-03      13   14    2         0.2264833719E+01      0.1255397358E+02

    ------------------------------------------------
       NWT REQUIRED            3 OUTER ITERATIONS 
       AND A TOTAL OF         11 INNER ITERATIONS.
    ------------------------------------------------

 NO OUTPUT CONTROL FOR STRESS PERIOD    8   TIME STEP    5
 
 SOLVING FOR HEAD 
                                                   Max.-Head-Change                         Max.-Flux-Residual
  Residual-Control   Outer-Iter.   Inner-Iter.     Column Row Layer    Maximum-Head-Change  Column Row Layer    Maximum-Flux-Residual          L2-NORM 
          0                 1           6            81   46     1      -0.2094089443E+01      81   46    1        -0.7338412353E+05      0.2950310757E+06
          0                 2           4            81   46     1       0.1902226894E+00      81   46    1         0.7331286002E+04      0.2963711480E+05
          0                 3           1            80   45     1       0.3345899514E-03      85   48    2        -0.2443951675E+01      0.1316157104E+02

    ------------------------------------------------
       NWT REQUIRED            3 OUTER ITERATIONS 
       AND A TOTAL OF         11 INNER ITERATIONS.
    ------------------------------------------------

 NO OUTPUT CONTROL FOR STRESS PERIOD    8   TIME STEP    6
 
 SOLVING FOR HEAD 
                                                   Max.-Head-Change                         Max.-Flux-Residual
  Residual-Control   Outer-Iter.   Inner-Iter.     Column Row Layer    Maximum-Head-Change  Column Row Layer    Maximum-Flux-Residual          L2-NORM 
          0                 1           6            81   46     1      -0.1868951686E+01      81   46    1        -0.6546983351E+05      0.2806949541E+06
          0                 2           4            81   46     1       0.1697871559E+00      81   46    1         0.6541357213E+04      0.2803751906E+05
          0                 3           1            80   45     1       0.3529491201E-03      13   14    2         0.2349266440E+01      0.1276122187E+02

    ------------------------------------------------
       NWT REQUIRED            3 OUTER ITERATIONS 
       AND A TOTAL OF         11 INNER ITERATIONS.
    ------------------------------------------------

 NO OUTPUT CONTROL FOR STRESS PERIOD    8   TIME STEP    7

 INTERPOLATION FOR HEAD OBS#  634, ID 3016-8-222   CHANGED BECAUSE AT LEAST ONE
 NEIGHBORING CELL REQUIRED FOR INTERPOLATION IS DRY OR INACTIVE (OBS2BAS7SE)
 
 SOLVING FOR HEAD 
                                                   Max.-Head-Change                         Max.-Flux-Residual
  Residual-Control   Outer-Iter.   Inner-Iter.     Column Row Layer    Maximum-Head-Change  Column Row Layer    Maximum-Flux-Residual          L2-NORM 
          0                 1           6            81   46     1      -0.1668670538E+01      81   46    1        -0.5842990372E+05      0.2698429168E+06
          0                 2           4            58   96     2      -0.2723221086E+00      81   46    1         0.5811089768E+04      0.2704448941E+05
          0                 3           2            58   96     2       0.2379629561E-01      58   96    2         0.2058604315E+03      0.2120715281E+03
          0                 4           1            58   96     2       0.1115936715E-03      58   96    2         0.9890911728E+00      0.1657353525E+01

    ------------------------------------------------
       NWT REQUIRED            4 OUTER ITERATIONS 
       AND A TOTAL OF         13 INNER ITERATIONS.
    ------------------------------------------------

 NO OUTPUT CONTROL FOR STRESS PERIOD    8   TIME STEP    8
 
 SOLVING FOR HEAD 
                                                   Max.-Head-Change                         Max.-Flux-Residual
  Residual-Control   Outer-Iter.   Inner-Iter.     Column Row Layer    Maximum-Head-Change  Column Row Layer    Maximum-Flux-Residual          L2-NORM 
          0                 1           6            81   46     1      -0.1492223020E+01      81   46    1        -0.5218746024E+05      0.2614021635E+06
          0                 2           4            81   46     1       0.1356046066E+00      81   46    1         0.5216301994E+04      0.2633423872E+05
          0                 3           2            15   34     2       0.5669182753E-02      15   34    2         0.1235462157E+03      0.1539058598E+03

    ------------------------------------------------
       NWT REQUIRED            3 OUTER ITERATIONS 
       AND A TOTAL OF         12 INNER ITERATIONS.
    ------------------------------------------------

 NO OUTPUT CONTROL FOR STRESS PERIOD    8   TIME STEP    9
 
 SOLVING FOR HEAD 
                                                   Max.-Head-Change                         Max.-Flux-Residual
  Residual-Control   Outer-Iter.   Inner-Iter.     Column Row Layer    Maximum-Head-Change  Column Row Layer    Maximum-Flux-Residual          L2-NORM 
          0                 1           6            81   46     1      -0.1334405548E+01      81   46    1        -0.4664968667E+05      0.2546794393E+06
          0                 2           4            81   46     1       0.1212687241E+00      81   46    1         0.4663005001E+04      0.2547622085E+05
          0                 3           2            59   86     1      -0.2749970402E-01      59   86    1        -0.1454287976E+04      0.1454375216E+04
          0                 4           2            59   86     1      -0.2478048394E-02      59   86    1        -0.1310399949E+03      0.1310587574E+03

    ------------------------------------------------
       NWT REQUIRED            4 OUTER ITERATIONS 
       AND A TOTAL OF         14 INNER ITERATIONS.
    ------------------------------------------------

 NO OUTPUT CONTROL FOR STRESS PERIOD    8   TIME STEP   10
 
 SOLVING FOR HEAD 
                                                   Max.-Head-Change                         Max.-Flux-Residual
  Residual-Control   Outer-Iter.   Inner-Iter.     Column Row Layer    Maximum-Head-Change  Column Row Layer    Maximum-Flux-Residual          L2-NORM 
          0                 1           6            81   46     1      -0.1193767867E+01      81   46    1        -0.4171552249E+05      0.2491635174E+06
          0                 2           4            81   46     1       0.1084915292E+00      81   46    1         0.4169972587E+04      0.2490897806E+05
          0                 3           2            59   86     1       0.5100072323E-02      59   86    1         0.9902730086E+02      0.1006404586E+03

    ------------------------------------------------
       NWT REQUIRED            3 OUTER ITERATIONS 
       AND A TOTAL OF         12 INNER ITERATIONS.
    ------------------------------------------------

 NO OUTPUT CONTROL FOR STRESS PERIOD    8   TIME STEP   11
 
 SOLVING FOR HEAD 
                                                   Max.-Head-Change                         Max.-Flux-Residual
  Residual-Control   Outer-Iter.   Inner-Iter.     Column Row Layer    Maximum-Head-Change  Column Row Layer    Maximum-Flux-Residual          L2-NORM 
          0                 1           6            81   46     1      -0.1068421980E+01      81   46    1        -0.3731858453E+05      0.2447135664E+06
          0                 2           4            81   46     1       0.9710282166E-01      81   46    1         0.3730586324E+04      0.2446249271E+05
          0                 3           2            16   76     1       0.2402347482E-02      16   76    1         0.3868571538E+02      0.4356436991E+02

    ------------------------------------------------
       NWT REQUIRED            3 OUTER ITERATIONS 
       AND A TOTAL OF         12 INNER ITERATIONS.
    ------------------------------------------------

 OUTPUT CONTROL FOR STRESS PERIOD    8   TIME STEP   12
    SAVE BUDGET
 UBDSV1 SAVING "         STORAGE" ON UNIT  39 AT TIME STEP 12, STRESS PERIOD   8
 UBDSV2 SAVING "   CONSTANT HEAD" ON UNIT  39 AT TIME STEP 12, STRESS PERIOD   8
 UBDSV1 SAVING "FLOW RIGHT FACE " ON UNIT  39 AT TIME STEP 12, STRESS PERIOD   8
 UBDSV1 SAVING "FLOW FRONT FACE " ON UNIT  39 AT TIME STEP 12, STRESS PERIOD   8
 UBDSV1 SAVING "FLOW LOWER FACE " ON UNIT  39 AT TIME STEP 12, STRESS PERIOD   8
 UBDSV4 SAVING "           WELLS" ON UNIT  39 AT TIME STEP 12, STRESS PERIOD   8
 UBDSV3 SAVING "              ET" ON UNIT  39 AT TIME STEP 12, STRESS PERIOD   8
 UBDSV3 SAVING "        RECHARGE" ON UNIT  39 AT TIME STEP 12, STRESS PERIOD   8
1
  VOLUMETRIC BUDGET FOR ENTIRE MODEL AT END OF TIME STEP   12, STRESS PERIOD   8
  ------------------------------------------------------------------------------

     CUMULATIVE VOLUMES      L**3       RATES FOR THIS TIME STEP      L**3/T
     ------------------                 ------------------------

           IN:                                      IN:
           ---                                      ---
             STORAGE = 15496597504.0000               STORAGE =    10298631.0000
       CONSTANT HEAD =  3472926976.0000         CONSTANT HEAD =     1186547.5000
               WELLS =  3581329664.0000                 WELLS =     1225642.0000
                  ET =           0.0000                    ET =           0.0000
            RECHARGE = 34021365760.0000              RECHARGE =     9564303.0000

            TOTAL IN = 56572223488.0000              TOTAL IN =    22275124.0000

          OUT:                                     OUT:
          ----                                     ----
             STORAGE =  2654364416.0000               STORAGE =       27849.3848
       CONSTANT HEAD =  9459120128.0000         CONSTANT HEAD =     3349728.0000
               WELLS = 40342089728.0000                 WELLS =    18199996.0000
                  ET =  4116737792.0000                    ET =      697555.0625
            RECHARGE =           0.0000              RECHARGE =           0.0000

           TOTAL OUT = 56572313600.0000             TOTAL OUT =    22275130.0000

            IN - OUT =      -90112.0000              IN - OUT =          -6.0000

 PERCENT DISCREPANCY =          -0.00     PERCENT DISCREPANCY =          -0.00






         TIME SUMMARY AT END OF TIME STEP   12 IN STRESS PERIOD    8
                    SECONDS     MINUTES      HOURS       DAYS        YEARS
                    -----------------------------------------------------------
   TIME STEP LENGTH 2.62800E+06  43800.      730.00      30.417     8.32763E-02
 STRESS PERIOD TIME 3.15360E+07 5.25600E+05  8760.0      365.00     0.99932    
         TOTAL TIME 2.52461E+08 4.20768E+06  70128.      2922.0      8.0000    
1
1
                            STRESS PERIOD NO.    9, LENGTH =   366.0000    
                            -----------------------------------------------

                              NUMBER OF TIME STEPS =    12

                               MULTIPLIER FOR DELT =     1.000

                            INITIAL TIME STEP SIZE =   30.50000    

    948 WELLS

 REUSING SURF FROM LAST STRESS PERIOD

 REUSING EVTR FROM LAST STRESS PERIOD

 REUSING EXDP FROM LAST STRESS PERIOD



                           RECHARGE
 READING ON UNIT   16 WITH FORMAT: (15F5.0)            


     63 TIME-VARIANT SPECIFIED-HEAD CELLS
 
 SOLVING FOR HEAD 
                                                   Max.-Head-Change                         Max.-Flux-Residual
  Residual-Control   Outer-Iter.   Inner-Iter.     Column Row Layer    Maximum-Head-Change  Column Row Layer    Maximum-Flux-Residual          L2-NORM 
          0                 1           7            92   77     2      -0.9747817394E+01      23   15    2        -0.2862737593E+06      0.5906897670E+06
          0                 2           5            80   47     3      -0.9199502971E+00      23   15    2         0.2862737279E+05      0.5944225180E+05
          0                 3           2            80   48     3      -0.1748096572E-01      40   29    1         0.2477610632E+03      0.2747558576E+03
          0                 4           2            92   77     2       0.9239606732E-03      92   77    2         0.4662415263E+00      0.1306614457E+01

    ------------------------------------------------
       NWT REQUIRED            4 OUTER ITERATIONS 
       AND A TOTAL OF         16 INNER ITERATIONS.
    ------------------------------------------------

 NO OUTPUT CONTROL FOR STRESS PERIOD    9   TIME STEP    1
 
 SOLVING FOR HEAD 
                                                   Max.-Head-Change                         Max.-Flux-Residual
  Residual-Control   Outer-Iter.   Inner-Iter.     Column Row Layer    Maximum-Head-Change  Column Row Layer    Maximum-Flux-Residual          L2-NORM 
          0                 1           6            80   47     3       0.1905065903E+01      57   44    1         0.6897741580E+05      0.2989357434E+06
          0                 2           5            80   47     3      -0.1731762472E+00      57   44    1        -0.7001751961E+04      0.2987393954E+05
          0                 3           1            92   77     2       0.5873633194E-03      21   32    1         0.1368337229E+01      0.6637314977E+01

    ------------------------------------------------
       NWT REQUIRED            3 OUTER ITERATIONS 
       AND A TOTAL OF         12 INNER ITERATIONS.
    ------------------------------------------------

 NO OUTPUT CONTROL FOR STRESS PERIOD    9   TIME STEP    2
 
 SOLVING FOR HEAD 
                                                   Max.-Head-Change                         Max.-Flux-Residual
  Residual-Control   Outer-Iter.   Inner-Iter.     Column Row Layer    Maximum-Head-Change  Column Row Layer    Maximum-Flux-Residual          L2-NORM 
          0                 1           6            81   45     1       0.7731703510E+00      26   19    1        -0.3546371636E+05      0.2544969718E+06
          0                 2           5            81   45     1      -0.7030894472E-01      26   19    1         0.3523815998E+04      0.2545183248E+05
          0                 3           1            92   77     2       0.5540732566E-03      29   18    2         0.1317705341E+01      0.6489788221E+01

    ------------------------------------------------
       NWT REQUIRED            3 OUTER ITERATIONS 
       AND A TOTAL OF         12 INNER ITERATIONS.
    ------------------------------------------------

 NO OUTPUT CONTROL FOR STRESS PERIOD    9   TIME STEP    3
 
 SOLVING FOR HEAD 
                                                   Max.-Head-Change                         Max.-Flux-Residual
  Residual-Control   Outer-Iter.   Inner-Iter.     Column Row Layer    Maximum-Head-Change  Column Row Layer    Maximum-Flux-Residual          L2-NORM 
          0                 1           6            81   45     1       0.6721273696E+00      24   18    1        -0.2563206791E+05      0.2375133946E+06
          0                 2           5            81   45     1      -0.6111849979E-01      24   18    1         0.2553865961E+04      0.2374262139E+05
          0                 3           1            92   77     2       0.5221680416E-03      42   36    1         0.9436613023E+00      0.5997036478E+01

    ------------------------------------------------
       NWT REQUIRED            3 OUTER ITERATIONS 
       AND A TOTAL OF         12 INNER ITERATIONS.
    ------------------------------------------------

 NO OUTPUT CONTROL FOR STRESS PERIOD    9   TIME STEP    4
 
 SOLVING FOR HEAD 
                                                   Max.-Head-Change                         Max.-Flux-Residual
  Residual-Control   Outer-Iter.   Inner-Iter.     Column Row Layer    Maximum-Head-Change  Column Row Layer    Maximum-Flux-Residual          L2-NORM 
          0                 1           6            81   45     1       0.5840716457E+00      24   18    1        -0.2094353895E+05      0.2287617312E+06
          0                 2           5            81   45     1      -0.5310962670E-01      24   18    1         0.2089857221E+04      0.2287768753E+05
          0                 3           1            84   47     2      -0.5495769110E-03      84   47    2        -0.7911683572E+01      0.1193879272E+02

    ------------------------------------------------
       NWT REQUIRED            3 OUTER ITERATIONS 
       AND A TOTAL OF         12 INNER ITERATIONS.
    ------------------------------------------------

 NO OUTPUT CONTROL FOR STRESS PERIOD    9   TIME STEP    5
 
 SOLVING FOR HEAD 
                                                   Max.-Head-Change                         Max.-Flux-Residual
  Residual-Control   Outer-Iter.   Inner-Iter.     Column Row Layer    Maximum-Head-Change  Column Row Layer    Maximum-Flux-Residual          L2-NORM 
          0                 1           6            81   45     1       0.5074341747E+00      24   18    1        -0.1823249098E+05      0.2232797974E+06
          0                 2           5            81   45     1      -0.4614006296E-01      24   18    1         0.1820629617E+04      0.2232092583E+05
          0                 3           1            92   77     2       0.4747143289E-03      42   36    1         0.8622752428E+00      0.5791567305E+01

    ------------------------------------------------
       NWT REQUIRED            3 OUTER ITERATIONS 
       AND A TOTAL OF         12 INNER ITERATIONS.
    ------------------------------------------------

 NO OUTPUT CONTROL FOR STRESS PERIOD    9   TIME STEP    6
 
 SOLVING FOR HEAD 
                                                   Max.-Head-Change                         Max.-Flux-Residual
  Residual-Control   Outer-Iter.   Inner-Iter.     Column Row Layer    Maximum-Head-Change  Column Row Layer    Maximum-Flux-Residual          L2-NORM 
          0                 1           6            81   45     1       0.4407677743E+00      25   18    1        -0.1653949446E+05      0.2194376243E+06
          0                 2           5            81   45     1      -0.4007742277E-01      25   18    1         0.1652886791E+04      0.2193827737E+05
          0                 3           2            66   26     2       0.1063013242E-02      66   26    2         0.2479208514E+02      0.2545470641E+02

    ------------------------------------------------
       NWT REQUIRED            3 OUTER ITERATIONS 
       AND A TOTAL OF         13 INNER ITERATIONS.
    ------------------------------------------------

 NO OUTPUT CONTROL FOR STRESS PERIOD    9   TIME STEP    7
 
 SOLVING FOR HEAD 
                                                   Max.-Head-Change                         Max.-Flux-Residual
  Residual-Control   Outer-Iter.   Inner-Iter.     Column Row Layer    Maximum-Head-Change  Column Row Layer    Maximum-Flux-Residual          L2-NORM 
          0                 1           6            81   45     1       0.3827866107E+00      12   10    1        -0.1602560963E+05      0.2165749131E+06
          0                 2           5            81   45     1      -0.3480484534E-01      12   10    1         0.1584045605E+04      0.2166003332E+05
          0                 3           1            92   77     2       0.4376397678E-03      42   36    1         0.7966036499E+00      0.5734107567E+01

    ------------------------------------------------
       NWT REQUIRED            3 OUTER ITERATIONS 
       AND A TOTAL OF         12 INNER ITERATIONS.
    ------------------------------------------------

 NO OUTPUT CONTROL FOR STRESS PERIOD    9   TIME STEP    8
 
 SOLVING FOR HEAD 
                                                   Max.-Head-Change                         Max.-Flux-Residual
  Residual-Control   Outer-Iter.   Inner-Iter.     Column Row Layer    Maximum-Head-Change  Column Row Layer    Maximum-Flux-Residual          L2-NORM 
          0                 1           6            25   18     1      -0.3586447073E+00      12   10    1        -0.1607824983E+05      0.2143488743E+06
          0                 2           5            25   18     1       0.3258820166E-01      12   10    1         0.1589145180E+04      0.2142730868E+05
          0                 3           1            92   77     2       0.4217327874E-03      40   29    1         0.7784478664E+00      0.5719824955E+01

    ------------------------------------------------
       NWT REQUIRED            3 OUTER ITERATIONS 
       AND A TOTAL OF         12 INNER ITERATIONS.
    ------------------------------------------------

 NO OUTPUT CONTROL FOR STRESS PERIOD    9   TIME STEP    9
 
 SOLVING FOR HEAD 
                                                   Max.-Head-Change                         Max.-Flux-Residual
  Residual-Control   Outer-Iter.   Inner-Iter.     Column Row Layer    Maximum-Head-Change  Column Row Layer    Maximum-Flux-Residual          L2-NORM 
          0                 1           6            12    6     3      -0.3411003012E+00      12   10    1        -0.1612389517E+05      0.2125593707E+06
          0                 2           5            12    6     3       0.3098587493E-01      12   10    1         0.1593563174E+04      0.2125089618E+05
          0                 3           1            92   77     2       0.4072290252E-03      40   29    1         0.7666228712E+00      0.5717990734E+01

    ------------------------------------------------
       NWT REQUIRED            3 OUTER ITERATIONS 
       AND A TOTAL OF         12 INNER ITERATIONS.
    ------------------------------------------------

 NO OUTPUT CONTROL FOR STRESS PERIOD    9   TIME STEP   10
 
 SOLVING FOR HEAD 
                                                   Max.-Head-Change                         Max.-Flux-Residual
  Residual-Control   Outer-Iter.   Inner-Iter.     Column Row Layer    Maximum-Head-Change  Column Row Layer    Maximum-Flux-Residual          L2-NORM 
          0                 1           6            12    6     3      -0.3420653033E+00      12   10    1        -0.1616151639E+05      0.2110830814E+06
          0                 2           4            55   38     2       0.8980499945E-01      55   38    2         0.6144866604E+04      0.2197949324E+05
          0                 3           1            92   77     2       0.4300452267E-03      13   14    2         0.1646003813E+01      0.1217769954E+02

    ------------------------------------------------
       NWT REQUIRED            3 OUTER ITERATIONS 
       AND A TOTAL OF         11 INNER ITERATIONS.
    ------------------------------------------------

 NO OUTPUT CONTROL FOR STRESS PERIOD    9   TIME STEP   11
 
 SOLVING FOR HEAD 
                                                   Max.-Head-Change                         Max.-Flux-Residual
  Residual-Control   Outer-Iter.   Inner-Iter.     Column Row Layer    Maximum-Head-Change  Column Row Layer    Maximum-Flux-Residual          L2-NORM 
          0                 1           6            12    6     3      -0.3429694538E+00      12   10    1        -0.1619805824E+05      0.2097737033E+06
          0                 2           5            12    6     3       0.3115550061E-01      12   10    1         0.1600724572E+04      0.2101966740E+05
          0                 3           1            92   77     2       0.3814476336E-03      40   29    1         0.7499859631E+00      0.5707813882E+01

    ------------------------------------------------
       NWT REQUIRED            3 OUTER ITERATIONS 
       AND A TOTAL OF         12 INNER ITERATIONS.
    ------------------------------------------------

 OUTPUT CONTROL FOR STRESS PERIOD    9   TIME STEP   12
    SAVE BUDGET
 UBDSV1 SAVING "         STORAGE" ON UNIT  39 AT TIME STEP 12, STRESS PERIOD   9
 UBDSV2 SAVING "   CONSTANT HEAD" ON UNIT  39 AT TIME STEP 12, STRESS PERIOD   9
 UBDSV1 SAVING "FLOW RIGHT FACE " ON UNIT  39 AT TIME STEP 12, STRESS PERIOD   9
 UBDSV1 SAVING "FLOW FRONT FACE " ON UNIT  39 AT TIME STEP 12, STRESS PERIOD   9
 UBDSV1 SAVING "FLOW LOWER FACE " ON UNIT  39 AT TIME STEP 12, STRESS PERIOD   9
 UBDSV4 SAVING "           WELLS" ON UNIT  39 AT TIME STEP 12, STRESS PERIOD   9
 UBDSV3 SAVING "              ET" ON UNIT  39 AT TIME STEP 12, STRESS PERIOD   9
 UBDSV3 SAVING "        RECHARGE" ON UNIT  39 AT TIME STEP 12, STRESS PERIOD   9
1
  VOLUMETRIC BUDGET FOR ENTIRE MODEL AT END OF TIME STEP   12, STRESS PERIOD   9
  ------------------------------------------------------------------------------

     CUMULATIVE VOLUMES      L**3       RATES FOR THIS TIME STEP      L**3/T
     ------------------                 ------------------------

           IN:                                      IN:
           ---                                      ---
             STORAGE = 19025733632.0000               STORAGE =     9539111.0000
       CONSTANT HEAD =  3910366208.0000         CONSTANT HEAD =     1184899.2500
               WELLS =  4029915392.0000                 WELLS =     1225642.0000
                  ET =           0.0000                    ET =           0.0000
            RECHARGE = 38320545792.0000              RECHARGE =    11746443.0000

            TOTAL IN = 65286561792.0000              TOTAL IN =    23696096.0000

          OUT:                                     OUT:
          ----                                     ----
             STORAGE =  2736990720.0000               STORAGE =       55994.9062
       CONSTANT HEAD = 10714512384.0000         CONSTANT HEAD =     3472967.0000
               WELLS = 47434330112.0000                 WELLS =    19377648.0000
                  ET =  4400849920.0000                    ET =      789458.3750
            RECHARGE =           0.0000              RECHARGE =           0.0000

           TOTAL OUT = 65286684672.0000             TOTAL OUT =    23696066.0000

            IN - OUT =     -122880.0000              IN - OUT =          30.0000

 PERCENT DISCREPANCY =          -0.00     PERCENT DISCREPANCY =           0.00






         TIME SUMMARY AT END OF TIME STEP   12 IN STRESS PERIOD    9
                    SECONDS     MINUTES      HOURS       DAYS        YEARS
                    -----------------------------------------------------------
   TIME STEP LENGTH 2.63520E+06  43920.      732.00      30.500     8.35044E-02
 STRESS PERIOD TIME 3.16224E+07 5.27040E+05  8784.0      366.00      1.0021    
         TOTAL TIME 2.84083E+08 4.73472E+06  78912.      3288.0      9.0021    
1
1
                            STRESS PERIOD NO.   10, LENGTH =   365.0000    
                            -----------------------------------------------

                              NUMBER OF TIME STEPS =    12

                               MULTIPLIER FOR DELT =     1.000

                            INITIAL TIME STEP SIZE =   30.41667    

    986 WELLS

 REUSING SURF FROM LAST STRESS PERIOD

 REUSING EVTR FROM LAST STRESS PERIOD

 REUSING EXDP FROM LAST STRESS PERIOD



                           RECHARGE
 READING ON UNIT   16 WITH FORMAT: (15F5.0)            


     63 TIME-VARIANT SPECIFIED-HEAD CELLS
 
 SOLVING FOR HEAD 
                                                   Max.-Head-Change                         Max.-Flux-Residual
  Residual-Control   Outer-Iter.   Inner-Iter.     Column Row Layer    Maximum-Head-Change  Column Row Layer    Maximum-Flux-Residual          L2-NORM 
          0                 1           7            92   77     2       0.1491390325E+02      30   25    2        -0.2244929248E+06      0.5381357926E+06
          0                 2           5            92   77     2      -0.5079420604E+00      30   25    2         0.2244930643E+05      0.5323465820E+05
          0                 3           2            92   77     2      -0.2920285334E-01      67   48    1        -0.1038161513E+03      0.1477420678E+03
          0                 4           2            92   77     2      -0.1652271301E-02      67   47    1         0.8287776772E+01      0.8602498668E+01

    ------------------------------------------------
       NWT REQUIRED            4 OUTER ITERATIONS 
       AND A TOTAL OF         16 INNER ITERATIONS.
    ------------------------------------------------

 NO OUTPUT CONTROL FOR STRESS PERIOD   10   TIME STEP    1

 INTERPOLATION FOR HEAD OBS# 3773, ID 1405-10-34   CHANGED BECAUSE AT LEAST ONE
 NEIGHBORING CELL REQUIRED FOR INTERPOLATION IS DRY OR INACTIVE (OBS2BAS7SE)
 
 SOLVING FOR HEAD 
                                                   Max.-Head-Change                         Max.-Flux-Residual
  Residual-Control   Outer-Iter.   Inner-Iter.     Column Row Layer    Maximum-Head-Change  Column Row Layer    Maximum-Flux-Residual          L2-NORM 
          0                 1           6            36   26     1      -0.1671808186E+01      36   26    1        -0.1194509373E+06      0.3465040464E+06
          0                 2           5            36   26     1       0.1486878979E+00      36   26    1         0.1152192526E+05      0.3454604192E+05
          0                 3           2            25   10     2       0.3895234498E-02      25   10    2         0.1457463619E+03      0.1462911308E+03

    ------------------------------------------------
       NWT REQUIRED            3 OUTER ITERATIONS 
       AND A TOTAL OF         13 INNER ITERATIONS.
    ------------------------------------------------

 NO OUTPUT CONTROL FOR STRESS PERIOD   10   TIME STEP    2
 
 SOLVING FOR HEAD 
                                                   Max.-Head-Change                         Max.-Flux-Residual
  Residual-Control   Outer-Iter.   Inner-Iter.     Column Row Layer    Maximum-Head-Change  Column Row Layer    Maximum-Flux-Residual          L2-NORM 
          0                 1           6            81   45     1       0.1132991963E+01      36   26    1        -0.6285537800E+05      0.3017577349E+06
          0                 2           5            27   14     1      -0.1033489102E+00      36   26    1         0.6161581527E+04      0.3069115249E+05
          0                 3           2            27   14     1       0.9224835436E-02      47   31    1         0.3514210797E+03      0.4213699419E+03

    ------------------------------------------------
       NWT REQUIRED            3 OUTER ITERATIONS 
       AND A TOTAL OF         13 INNER ITERATIONS.
    ------------------------------------------------

 NO OUTPUT CONTROL FOR STRESS PERIOD   10   TIME STEP    3

 INTERPOLATION FOR HEAD OBS# 6306, ID 766-10-104   CHANGED BECAUSE AT LEAST ONE
 NEIGHBORING CELL REQUIRED FOR INTERPOLATION IS DRY OR INACTIVE (OBS2BAS7SE)
 
 SOLVING FOR HEAD 
                                                   Max.-Head-Change                         Max.-Flux-Residual
  Residual-Control   Outer-Iter.   Inner-Iter.     Column Row Layer    Maximum-Head-Change  Column Row Layer    Maximum-Flux-Residual          L2-NORM 
          0                 1           6            81   45     1       0.9912585026E+00      36   26    1        -0.3860267053E+05      0.2818106542E+06
          0                 2           5            81   45     1      -0.9015278103E-01      36   26    1         0.3816352914E+04      0.2825857491E+05
          0                 3           1            90   76     2       0.1328109461E-03      27   14    1         0.1055789761E+01      0.5772793873E+01

    ------------------------------------------------
       NWT REQUIRED            3 OUTER ITERATIONS 
       AND A TOTAL OF         12 INNER ITERATIONS.
    ------------------------------------------------

 NO OUTPUT CONTROL FOR STRESS PERIOD   10   TIME STEP    4
 
 SOLVING FOR HEAD 
                                                   Max.-Head-Change                         Max.-Flux-Residual
  Residual-Control   Outer-Iter.   Inner-Iter.     Column Row Layer    Maximum-Head-Change  Column Row Layer    Maximum-Flux-Residual          L2-NORM 
          0                 1           6            81   45     1       0.8677535715E+00      70   47    1         0.3188103633E+05      0.2701055338E+06
          0                 2           5            25   10     1      -0.1197734785E+00      70   47    1        -0.3193683223E+04      0.2704530096E+05
          0                 3           2            25   10     1       0.1066269717E-01      25   10    1         0.1685956767E+03      0.1781247586E+03
          0                 4           1            25   10     1       0.1921003535E-04      25   10    1         0.2970434166E+00      0.3529859935E+00

    ------------------------------------------------
       NWT REQUIRED            4 OUTER ITERATIONS 
       AND A TOTAL OF         14 INNER ITERATIONS.
    ------------------------------------------------

 NO OUTPUT CONTROL FOR STRESS PERIOD   10   TIME STEP    5
 
 SOLVING FOR HEAD 
                                                   Max.-Head-Change                         Max.-Flux-Residual
  Residual-Control   Outer-Iter.   Inner-Iter.     Column Row Layer    Maximum-Head-Change  Column Row Layer    Maximum-Flux-Residual          L2-NORM 
          0                 1           6            81   45     1       0.7601101061E+00      70   47    1         0.2815181887E+05      0.2621586526E+06
          0                 2           5            81   45     1      -0.6912101062E-01      70   47    1        -0.2819411422E+04      0.2624619610E+05
          0                 3           2            56   51     1       0.5586357477E-02      56   51    1         0.1613790392E+03      0.1658877900E+03

    ------------------------------------------------
       NWT REQUIRED            3 OUTER ITERATIONS 
       AND A TOTAL OF         13 INNER ITERATIONS.
    ------------------------------------------------

 NO OUTPUT CONTROL FOR STRESS PERIOD   10   TIME STEP    6
 
 SOLVING FOR HEAD 
                                                   Max.-Head-Change                         Max.-Flux-Residual
  Residual-Control   Outer-Iter.   Inner-Iter.     Column Row Layer    Maximum-Head-Change  Column Row Layer    Maximum-Flux-Residual          L2-NORM 
          0                 1           6            81   45     1       0.6662705929E+00      12    8    1        -0.2705449064E+05      0.2564305897E+06
          0                 2           5            16   35     2      -0.8499277728E-01      12    8    1         0.2656097920E+04      0.2570933337E+05
          0                 3           2            16   35     2       0.7602635016E-02      16   35    2         0.1226889150E+03      0.1294486751E+03

    ------------------------------------------------
       NWT REQUIRED            3 OUTER ITERATIONS 
       AND A TOTAL OF         13 INNER ITERATIONS.
    ------------------------------------------------

 NO OUTPUT CONTROL FOR STRESS PERIOD   10   TIME STEP    7

 INTERPOLATION FOR HEAD OBS# 3514, ID 1473-10-213  CHANGED BECAUSE AT LEAST ONE
 NEIGHBORING CELL REQUIRED FOR INTERPOLATION IS DRY OR INACTIVE (OBS2BAS7SE)
 
 SOLVING FOR HEAD 
                                                   Max.-Head-Change                         Max.-Flux-Residual
  Residual-Control   Outer-Iter.   Inner-Iter.     Column Row Layer    Maximum-Head-Change  Column Row Layer    Maximum-Flux-Residual          L2-NORM 
          0                 1           6            12    5     3      -0.6272773466E+00      12    8    1        -0.2726829108E+05      0.2520838790E+06
          0                 2           5            12    5     3       0.5694464740E-01      12    8    1         0.2676751910E+04      0.2521782337E+05
          0                 3           1            55   38     1       0.5363210419E-03      55   38    1         0.4277220361E+01      0.7972160305E+01

    ------------------------------------------------
       NWT REQUIRED            3 OUTER ITERATIONS 
       AND A TOTAL OF         12 INNER ITERATIONS.
    ------------------------------------------------

 NO OUTPUT CONTROL FOR STRESS PERIOD   10   TIME STEP    8
 
 SOLVING FOR HEAD 
                                                   Max.-Head-Change                         Max.-Flux-Residual
  Residual-Control   Outer-Iter.   Inner-Iter.     Column Row Layer    Maximum-Head-Change  Column Row Layer    Maximum-Flux-Residual          L2-NORM 
          0                 1           6            55   38     1      -0.9238935797E+00      12    8    1        -0.2742356411E+05      0.2486012334E+06
          0                 2           5            55   38     1       0.7881678416E-01      12    8    1         0.2691718216E+04      0.2483539276E+05
          0                 3           1            55   38     1       0.3944109680E-03      55   38    1         0.2894571230E+01      0.6187629212E+01

    ------------------------------------------------
       NWT REQUIRED            3 OUTER ITERATIONS 
       AND A TOTAL OF         12 INNER ITERATIONS.
    ------------------------------------------------

 NO OUTPUT CONTROL FOR STRESS PERIOD   10   TIME STEP    9
 
 SOLVING FOR HEAD 
                                                   Max.-Head-Change                         Max.-Flux-Residual
  Residual-Control   Outer-Iter.   Inner-Iter.     Column Row Layer    Maximum-Head-Change  Column Row Layer    Maximum-Flux-Residual          L2-NORM 
          0                 1           6            12    5     3      -0.6344259580E+00      12    8    1        -0.2753908538E+05      0.2458935944E+06
          0                 2           5            12    5     3       0.5759123362E-01      12    8    1         0.2702812073E+04      0.2456445645E+05
          0                 3           1            57   35     1       0.1235160497E-03      31   18    1         0.8631825931E+00      0.5504543211E+01

    ------------------------------------------------
       NWT REQUIRED            3 OUTER ITERATIONS 
       AND A TOTAL OF         12 INNER ITERATIONS.
    ------------------------------------------------

 NO OUTPUT CONTROL FOR STRESS PERIOD   10   TIME STEP   10
 
 SOLVING FOR HEAD 
                                                   Max.-Head-Change                         Max.-Flux-Residual
  Residual-Control   Outer-Iter.   Inner-Iter.     Column Row Layer    Maximum-Head-Change  Column Row Layer    Maximum-Flux-Residual          L2-NORM 
          0                 1           6            12    5     3      -0.6373246227E+00      12    8    1        -0.2762807142E+05      0.2436473749E+06
          0                 2           5            12    5     3       0.5785323953E-01      12    8    1         0.2711320544E+04      0.2433916370E+05
          0                 3           1            57   35     1       0.1234597240E-03      13   14    1         0.8748075366E+00      0.5503266628E+01

    ------------------------------------------------
       NWT REQUIRED            3 OUTER ITERATIONS 
       AND A TOTAL OF         12 INNER ITERATIONS.
    ------------------------------------------------

 NO OUTPUT CONTROL FOR STRESS PERIOD   10   TIME STEP   11
 
 SOLVING FOR HEAD 
                                                   Max.-Head-Change                         Max.-Flux-Residual
  Residual-Control   Outer-Iter.   Inner-Iter.     Column Row Layer    Maximum-Head-Change  Column Row Layer    Maximum-Flux-Residual          L2-NORM 
          0                 1           6            12    5     3      -0.6398660705E+00      12    8    1        -0.2769528443E+05      0.2418089514E+06
          0                 2           5            12    5     3       0.5808347254E-01      12    8    1         0.2717722334E+04      0.2413363783E+05
          0                 3           1            80   45     1      -0.1241889757E-03      13   14    1         0.8936555982E+00      0.5506636903E+01

    ------------------------------------------------
       NWT REQUIRED            3 OUTER ITERATIONS 
       AND A TOTAL OF         12 INNER ITERATIONS.
    ------------------------------------------------

 OUTPUT CONTROL FOR STRESS PERIOD   10   TIME STEP   12
    SAVE BUDGET
 UBDSV1 SAVING "         STORAGE" ON UNIT  39 AT TIME STEP 12, STRESS PERIOD  10
 UBDSV2 SAVING "   CONSTANT HEAD" ON UNIT  39 AT TIME STEP 12, STRESS PERIOD  10
 UBDSV1 SAVING "FLOW RIGHT FACE " ON UNIT  39 AT TIME STEP 12, STRESS PERIOD  10
 UBDSV1 SAVING "FLOW FRONT FACE " ON UNIT  39 AT TIME STEP 12, STRESS PERIOD  10
 UBDSV1 SAVING "FLOW LOWER FACE " ON UNIT  39 AT TIME STEP 12, STRESS PERIOD  10
 UBDSV4 SAVING "           WELLS" ON UNIT  39 AT TIME STEP 12, STRESS PERIOD  10
 UBDSV3 SAVING "              ET" ON UNIT  39 AT TIME STEP 12, STRESS PERIOD  10
 UBDSV3 SAVING "        RECHARGE" ON UNIT  39 AT TIME STEP 12, STRESS PERIOD  10

 INTERPOLATION FOR HEAD OBS# 3404, ID 1428-11-1    CHANGED BECAUSE AT LEAST ONE
 NEIGHBORING CELL REQUIRED FOR INTERPOLATION IS DRY OR INACTIVE (OBS2BAS7SE)
1
  VOLUMETRIC BUDGET FOR ENTIRE MODEL AT END OF TIME STEP   12, STRESS PERIOD  10
  ------------------------------------------------------------------------------

     CUMULATIVE VOLUMES      L**3       RATES FOR THIS TIME STEP      L**3/T
     ------------------                 ------------------------

           IN:                                      IN:
           ---                                      ---
             STORAGE = 22454067200.0000               STORAGE =     9277404.0000
       CONSTANT HEAD =  4349413888.0000         CONSTANT HEAD =     1213305.1250
               WELLS =  4477274112.0000                 WELLS =     1225642.0000
                  ET =           0.0000                    ET =           0.0000
            RECHARGE = 43449409536.0000              RECHARGE =    14051623.0000

            TOTAL IN = 74730160128.0000              TOTAL IN =    25767974.0000

          OUT:                                     OUT:
          ----                                     ----
             STORAGE =  3008642816.0000               STORAGE =      406113.9062
       CONSTANT HEAD = 12062834688.0000         CONSTANT HEAD =     3823416.0000
               WELLS = 54889017344.0000                 WELLS =    20423760.0000
                  ET =  4769783296.0000                    ET =     1114658.6250
            RECHARGE =           0.0000              RECHARGE =           0.0000

           TOTAL OUT = 74730274816.0000             TOTAL OUT =    25767948.0000

            IN - OUT =     -114688.0000              IN - OUT =          26.0000

 PERCENT DISCREPANCY =          -0.00     PERCENT DISCREPANCY =           0.00






         TIME SUMMARY AT END OF TIME STEP   12 IN STRESS PERIOD   10
                    SECONDS     MINUTES      HOURS       DAYS        YEARS
                    -----------------------------------------------------------
   TIME STEP LENGTH 2.62800E+06  43800.      730.00      30.417     8.32763E-02
 STRESS PERIOD TIME 3.15360E+07 5.25600E+05  8760.0      365.00     0.99932    
         TOTAL TIME 3.15619E+08 5.26032E+06  87672.      3653.0      10.001    
1
1
                            STRESS PERIOD NO.   11, LENGTH =   365.0000    
                            -----------------------------------------------

                              NUMBER OF TIME STEPS =    12

                               MULTIPLIER FOR DELT =     1.000

                            INITIAL TIME STEP SIZE =   30.41667    

   1022 WELLS

 REUSING SURF FROM LAST STRESS PERIOD

 REUSING EVTR FROM LAST STRESS PERIOD

 REUSING EXDP FROM LAST STRESS PERIOD



                           RECHARGE
 READING ON UNIT   16 WITH FORMAT: (15F5.0)            


     63 TIME-VARIANT SPECIFIED-HEAD CELLS
 
 SOLVING FOR HEAD 
                                                   Max.-Head-Change                         Max.-Flux-Residual
  Residual-Control   Outer-Iter.   Inner-Iter.     Column Row Layer    Maximum-Head-Change  Column Row Layer    Maximum-Flux-Residual          L2-NORM 
          0                 1           7            65    2     2       0.2961167974E+02      60  100    1        -0.1965941553E+06      0.8649971781E+06
          0                 2           5            79   48     2       0.2154985671E+01      60  100    1         0.1770745772E+05      0.8613081199E+05
          0                 3           2            65    2     2      -0.5783417239E-01      64   82    2        -0.4597912211E+03      0.9040741921E+03
          0                 4           2            65    2     2      -0.3306913211E-02      63   82    2         0.3445670507E+02      0.4512419695E+02

    ------------------------------------------------
       NWT REQUIRED            4 OUTER ITERATIONS 
       AND A TOTAL OF         16 INNER ITERATIONS.
    ------------------------------------------------

 NO OUTPUT CONTROL FOR STRESS PERIOD   11   TIME STEP    1

 INTERPOLATION FOR HEAD OBS#  635, ID 3016-11-53   CHANGED BECAUSE AT LEAST ONE
 NEIGHBORING CELL REQUIRED FOR INTERPOLATION IS DRY OR INACTIVE (OBS2BAS7SE)

 INTERPOLATION FOR HEAD OBS#  648, ID 3055-11-56   CHANGED BECAUSE AT LEAST ONE
 NEIGHBORING CELL REQUIRED FOR INTERPOLATION IS DRY OR INACTIVE (OBS2BAS7SE)

 INTERPOLATION FOR HEAD OBS# 3661, ID 1891-11-38   CHANGED BECAUSE AT LEAST ONE
 NEIGHBORING CELL REQUIRED FOR INTERPOLATION IS DRY OR INACTIVE (OBS2BAS7SE)
 
 SOLVING FOR HEAD 
                                                   Max.-Head-Change                         Max.-Flux-Residual
  Residual-Control   Outer-Iter.   Inner-Iter.     Column Row Layer    Maximum-Head-Change  Column Row Layer    Maximum-Flux-Residual          L2-NORM 
          0                 1           7            42   32     1       0.1940554672E+01      60  100    1        -0.9467488747E+05      0.5097763348E+06
          0                 2           5            42   32     1      -0.1796385802E+00      60  100    1         0.1154429640E+05      0.5140518117E+05
          0                 3           2            66   26     2      -0.1097303133E-01      66   26    2        -0.3208021264E+03      0.3557214378E+03
          0                 4           1            65    2     2      -0.6081336763E-04      62   84    1        -0.5741552263E+00      0.1439551538E+01

    ------------------------------------------------
       NWT REQUIRED            4 OUTER ITERATIONS 
       AND A TOTAL OF         15 INNER ITERATIONS.
    ------------------------------------------------

 NO OUTPUT CONTROL FOR STRESS PERIOD   11   TIME STEP    2

 INTERPOLATION FOR HEAD OBS# 1563, ID 2931-11-62   CHANGED BECAUSE AT LEAST ONE
 NEIGHBORING CELL REQUIRED FOR INTERPOLATION IS DRY OR INACTIVE (OBS2BAS7SE)

 INTERPOLATION FOR HEAD OBS# 3197, ID 2435-11-80   CHANGED BECAUSE AT LEAST ONE
 NEIGHBORING CELL REQUIRED FOR INTERPOLATION IS DRY OR INACTIVE (OBS2BAS7SE)
 
 SOLVING FOR HEAD 
                                                   Max.-Head-Change                         Max.-Flux-Residual
  Residual-Control   Outer-Iter.   Inner-Iter.     Column Row Layer    Maximum-Head-Change  Column Row Layer    Maximum-Flux-Residual          L2-NORM 
          0                 1           7            42   32     1       0.1487882377E+01      42   32    1         0.6860036440E+05      0.4093578097E+06
          0                 2           5            42   32     1      -0.1369797141E+00      42   32    1        -0.7006782267E+04      0.4091331961E+05
          0                 3           2            67    9     2      -0.2875116546E-02      26   13    1         0.2633752711E+02      0.3901921762E+02

    ------------------------------------------------
       NWT REQUIRED            3 OUTER ITERATIONS 
       AND A TOTAL OF         14 INNER ITERATIONS.
    ------------------------------------------------

 NO OUTPUT CONTROL FOR STRESS PERIOD   11   TIME STEP    3

 INTERPOLATION FOR HEAD OBS# 1241, ID 2727-11-121  CHANGED BECAUSE AT LEAST ONE
 NEIGHBORING CELL REQUIRED FOR INTERPOLATION IS DRY OR INACTIVE (OBS2BAS7SE)
 
 SOLVING FOR HEAD 
                                                   Max.-Head-Change                         Max.-Flux-Residual
  Residual-Control   Outer-Iter.   Inner-Iter.     Column Row Layer    Maximum-Head-Change  Column Row Layer    Maximum-Flux-Residual          L2-NORM 
          0                 1           6            70   19     2       0.1280937310E+01      42   32    1         0.5262819471E+05      0.3645588222E+06
          0                 2           5            70   19     2      -0.1155959044E+00      42   32    1        -0.5343867478E+04      0.3647454992E+05
          0                 3           2            73   13     3      -0.1810864124E-02      21   52    2         0.3129257007E+02      0.3497980724E+02

    ------------------------------------------------
       NWT REQUIRED            3 OUTER ITERATIONS 
       AND A TOTAL OF         13 INNER ITERATIONS.
    ------------------------------------------------

 NO OUTPUT CONTROL FOR STRESS PERIOD   11   TIME STEP    4
 
 SOLVING FOR HEAD 
                                                   Max.-Head-Change                         Max.-Flux-Residual
  Residual-Control   Outer-Iter.   Inner-Iter.     Column Row Layer    Maximum-Head-Change  Column Row Layer    Maximum-Flux-Residual          L2-NORM 
          0                 1           6            70   19     2       0.1198166182E+01      42   32    1         0.4170625825E+05      0.3381606610E+06
          0                 2           5            70   19     2      -0.1080932076E+00      42   32    1        -0.4217735413E+04      0.3377931532E+05
          0                 3           1            73   15     1      -0.8237145308E-03      70   19    1        -0.3118666358E+01      0.1087724565E+02

    ------------------------------------------------
       NWT REQUIRED            3 OUTER ITERATIONS 
       AND A TOTAL OF         12 INNER ITERATIONS.
    ------------------------------------------------

 NO OUTPUT CONTROL FOR STRESS PERIOD   11   TIME STEP    5
 
 SOLVING FOR HEAD 
                                                   Max.-Head-Change                         Max.-Flux-Residual
  Residual-Control   Outer-Iter.   Inner-Iter.     Column Row Layer    Maximum-Head-Change  Column Row Layer    Maximum-Flux-Residual          L2-NORM 
          0                 1           6            70   19     2       0.1123309390E+01      79   48    1        -0.3900041368E+05      0.3202916585E+06
          0                 2           5            70   19     2      -0.1013119536E+00      79   48    1         0.3886244909E+04      0.3200252829E+05
          0                 3           1            73   15     1      -0.8250231239E-03      70   19    1        -0.2923559140E+01      0.1061154234E+02

    ------------------------------------------------
       NWT REQUIRED            3 OUTER ITERATIONS 
       AND A TOTAL OF         12 INNER ITERATIONS.
    ------------------------------------------------

 NO OUTPUT CONTROL FOR STRESS PERIOD   11   TIME STEP    6
 
 SOLVING FOR HEAD 
                                                   Max.-Head-Change                         Max.-Flux-Residual
  Residual-Control   Outer-Iter.   Inner-Iter.     Column Row Layer    Maximum-Head-Change  Column Row Layer    Maximum-Flux-Residual          L2-NORM 
          0                 1           6            70   19     2       0.1055491165E+01      79   48    1        -0.3690106914E+05      0.3072538870E+06
          0                 2           5            65   44     2       0.9591708262E-01      65   44    2         0.4535153711E+04      0.3103794976E+05
          0                 3           2            73   48     1      -0.1137860379E-02      73   48    1        -0.6630522233E+02      0.6710535629E+02

    ------------------------------------------------
       NWT REQUIRED            3 OUTER ITERATIONS 
       AND A TOTAL OF         13 INNER ITERATIONS.
    ------------------------------------------------

 NO OUTPUT CONTROL FOR STRESS PERIOD   11   TIME STEP    7
 
 SOLVING FOR HEAD 
                                                   Max.-Head-Change                         Max.-Flux-Residual
  Residual-Control   Outer-Iter.   Inner-Iter.     Column Row Layer    Maximum-Head-Change  Column Row Layer    Maximum-Flux-Residual          L2-NORM 
          0                 1           6            70   19     2       0.9939378649E+00      79   48    1        -0.3490235699E+05      0.2972427370E+06
          0                 2           5            67   23     1      -0.1589787835E+00      67   23    1        -0.7849416171E+04      0.3078164234E+05
          0                 3           1            73   15     1      -0.8305735250E-03      80   49    1        -0.1475985660E+02      0.1796387716E+02

    ------------------------------------------------
       NWT REQUIRED            3 OUTER ITERATIONS 
       AND A TOTAL OF         12 INNER ITERATIONS.
    ------------------------------------------------

 NO OUTPUT CONTROL FOR STRESS PERIOD   11   TIME STEP    8
 
 SOLVING FOR HEAD 
                                                   Max.-Head-Change                         Max.-Flux-Residual
  Residual-Control   Outer-Iter.   Inner-Iter.     Column Row Layer    Maximum-Head-Change  Column Row Layer    Maximum-Flux-Residual          L2-NORM 
          0                 1           6            70   19     2       0.9379632371E+00      79   48    1        -0.3300943536E+05      0.2893083428E+06
          0                 2           5            70   19     2      -0.8454052935E-01      79   48    1         0.3290644136E+04      0.2890319211E+05
          0                 3           1            73   15     1      -0.8383402662E-03      80   49    1         0.3926274838E+02      0.4073701908E+02

    ------------------------------------------------
       NWT REQUIRED            3 OUTER ITERATIONS 
       AND A TOTAL OF         12 INNER ITERATIONS.
    ------------------------------------------------

 NO OUTPUT CONTROL FOR STRESS PERIOD   11   TIME STEP    9

 INTERPOLATION FOR HEAD OBS# 1012, ID 2643-11-275  CHANGED BECAUSE AT LEAST ONE
 NEIGHBORING CELL REQUIRED FOR INTERPOLATION IS DRY OR INACTIVE (OBS2BAS7SE)

 INTERPOLATION FOR HEAD OBS# 3710, ID 1471-11-278  CHANGED BECAUSE AT LEAST ONE
 NEIGHBORING CELL REQUIRED FOR INTERPOLATION IS DRY OR INACTIVE (OBS2BAS7SE)
 
 SOLVING FOR HEAD 
                                                   Max.-Head-Change                         Max.-Flux-Residual
  Residual-Control   Outer-Iter.   Inner-Iter.     Column Row Layer    Maximum-Head-Change  Column Row Layer    Maximum-Flux-Residual          L2-NORM 
          0                 1           6            70   19     2       0.8869681147E+00      79   48    1        -0.3122629985E+05      0.2829351154E+06
          0                 2           5            70   19     2      -0.7993056812E-01      79   48    1         0.3335506734E+04      0.2829179189E+05
          0                 3           1            73   15     1      -0.8208223459E-03      62  106    1         0.8903119206E+01      0.1594298005E+02

    ------------------------------------------------
       NWT REQUIRED            3 OUTER ITERATIONS 
       AND A TOTAL OF         12 INNER ITERATIONS.
    ------------------------------------------------

 NO OUTPUT CONTROL FOR STRESS PERIOD   11   TIME STEP   10
 
 SOLVING FOR HEAD 
                                                   Max.-Head-Change                         Max.-Flux-Residual
  Residual-Control   Outer-Iter.   Inner-Iter.     Column Row Layer    Maximum-Head-Change  Column Row Layer    Maximum-Flux-Residual          L2-NORM 
          0                 1           6            70   19     2       0.8404207117E+00      79   48    1        -0.2939494319E+05      0.2776501051E+06
          0                 2           5            65   44     1      -0.1027816997E+00      79   48    1         0.2934540128E+04      0.2777071293E+05
          0                 3           2            65   44     1       0.9016004441E-02      65   44    1         0.1152260905E+03      0.1258720432E+03

    ------------------------------------------------
       NWT REQUIRED            3 OUTER ITERATIONS 
       AND A TOTAL OF         13 INNER ITERATIONS.
    ------------------------------------------------

 NO OUTPUT CONTROL FOR STRESS PERIOD   11   TIME STEP   11
 
 SOLVING FOR HEAD 
                                                   Max.-Head-Change                         Max.-Flux-Residual
  Residual-Control   Outer-Iter.   Inner-Iter.     Column Row Layer    Maximum-Head-Change  Column Row Layer    Maximum-Flux-Residual          L2-NORM 
          0                 1           6            73   15     3       0.8213004336E+00      79   48    1        -0.2749127840E+05      0.2731553915E+06
          0                 2           5            73   15     3      -0.7296536837E-01      79   48    1         0.2744829552E+04      0.2729939599E+05
          0                 3           2            66    8     3      -0.1839865447E-02      66    8    3        -0.3107590110E+02      0.3929184105E+02

    ------------------------------------------------
       NWT REQUIRED            3 OUTER ITERATIONS 
       AND A TOTAL OF         13 INNER ITERATIONS.
    ------------------------------------------------

 OUTPUT CONTROL FOR STRESS PERIOD   11   TIME STEP   12
    SAVE BUDGET
    SAVE HEAD FOR LAYERS:   1  2  3
 UBDSV1 SAVING "         STORAGE" ON UNIT  39 AT TIME STEP 12, STRESS PERIOD  11
 UBDSV2 SAVING "   CONSTANT HEAD" ON UNIT  39 AT TIME STEP 12, STRESS PERIOD  11
 UBDSV1 SAVING "FLOW RIGHT FACE " ON UNIT  39 AT TIME STEP 12, STRESS PERIOD  11
 UBDSV1 SAVING "FLOW FRONT FACE " ON UNIT  39 AT TIME STEP 12, STRESS PERIOD  11
 UBDSV1 SAVING "FLOW LOWER FACE " ON UNIT  39 AT TIME STEP 12, STRESS PERIOD  11
 UBDSV4 SAVING "           WELLS" ON UNIT  39 AT TIME STEP 12, STRESS PERIOD  11
 UBDSV3 SAVING "              ET" ON UNIT  39 AT TIME STEP 12, STRESS PERIOD  11
 UBDSV3 SAVING "        RECHARGE" ON UNIT  39 AT TIME STEP 12, STRESS PERIOD  11

 HEAD WILL BE SAVED ON UNIT   31 AT END OF TIME STEP   12, STRESS PERIOD   11
1
  VOLUMETRIC BUDGET FOR ENTIRE MODEL AT END OF TIME STEP   12, STRESS PERIOD  11
  ------------------------------------------------------------------------------

     CUMULATIVE VOLUMES      L**3       RATES FOR THIS TIME STEP      L**3/T
     ------------------                 ------------------------

           IN:                                      IN:
           ---                                      ---
             STORAGE = 26350315520.0000               STORAGE =    10175030.0000
       CONSTANT HEAD =  4788621824.0000         CONSTANT HEAD =     1198658.3750
               WELLS =  4924631040.0000                 WELLS =     1225642.0000
                  ET =           0.0000                    ET =           0.0000
            RECHARGE = 48446349312.0000              RECHARGE =    13690261.0000

            TOTAL IN = 84509917184.0000              TOTAL IN =    26289592.0000

          OUT:                                     OUT:
          ----                                     ----
             STORAGE =  3753326080.0000               STORAGE =     1657762.2500
       CONSTANT HEAD = 13483047936.0000         CONSTANT HEAD =     3944713.2500
               WELLS = 62239846400.0000                 WELLS =    20139292.0000
                  ET =  5033800704.0000                    ET =      547812.9375
            RECHARGE =           0.0000              RECHARGE =           0.0000

           TOTAL OUT = 84510023680.0000             TOTAL OUT =    26289580.0000

            IN - OUT =     -106496.0000              IN - OUT =          12.0000

 PERCENT DISCREPANCY =          -0.00     PERCENT DISCREPANCY =           0.00






         TIME SUMMARY AT END OF TIME STEP   12 IN STRESS PERIOD   11
                    SECONDS     MINUTES      HOURS       DAYS        YEARS
                    -----------------------------------------------------------
   TIME STEP LENGTH 2.62800E+06  43800.      730.00      30.417     8.32763E-02
 STRESS PERIOD TIME 3.15360E+07 5.25600E+05  8760.0      365.00     0.99932    
         TOTAL TIME 3.47156E+08 5.78593E+06  96432.      4018.0      11.001    
1
1
                            STRESS PERIOD NO.   12, LENGTH =   365.0000    
                            -----------------------------------------------

                              NUMBER OF TIME STEPS =    12

                               MULTIPLIER FOR DELT =     1.000

                            INITIAL TIME STEP SIZE =   30.41667    

   1330 WELLS

 REUSING SURF FROM LAST STRESS PERIOD

 REUSING EVTR FROM LAST STRESS PERIOD

 REUSING EXDP FROM LAST STRESS PERIOD



                           RECHARGE
 READING ON UNIT   16 WITH FORMAT: (15F5.0)            


     63 TIME-VARIANT SPECIFIED-HEAD CELLS
 
 SOLVING FOR HEAD 
                                                   Max.-Head-Change                         Max.-Flux-Residual
  Residual-Control   Outer-Iter.   Inner-Iter.     Column Row Layer    Maximum-Head-Change  Column Row Layer    Maximum-Flux-Residual          L2-NORM 
          0                 1           8            65    2     2      -0.2946988172E+02      23   20    2        -0.2543119128E+06      0.1122518698E+07
          0                 2           6            72   48     3       0.2348358414E+01      23   20    2         0.2543121090E+05      0.1108565276E+06
          0                 3           2            65    7     2       0.7077781075E-01      15   38    3         0.2774568268E+03      0.5604908039E+03
          0                 4           2            65    2     2       0.3196294199E-02      16   38    3        -0.1984299678E+02      0.2551366602E+02

    ------------------------------------------------
       NWT REQUIRED            4 OUTER ITERATIONS 
       AND A TOTAL OF         18 INNER ITERATIONS.
    ------------------------------------------------

 NO OUTPUT CONTROL FOR STRESS PERIOD   12   TIME STEP    1
 
 SOLVING FOR HEAD 
                                                   Max.-Head-Change                         Max.-Flux-Residual
  Residual-Control   Outer-Iter.   Inner-Iter.     Column Row Layer    Maximum-Head-Change  Column Row Layer    Maximum-Flux-Residual          L2-NORM 
          0                 1           8            72   48     3      -0.7871132648E+01      72   48    1         0.8144212266E+05      0.6425439769E+06
          0                 2           6            72   48     3       0.7155323117E+00      34   20    2         0.9018374684E+04      0.6470294139E+05
          0                 3           3            34   20     1      -0.9183446189E-01      34   20    1        -0.4813935628E+04      0.4832560060E+04
          0                 4           2            34   20     1      -0.8274299587E-02      34   20    1        -0.4337071038E+03      0.4337373681E+03

    ------------------------------------------------
       NWT REQUIRED            4 OUTER ITERATIONS 
       AND A TOTAL OF         19 INNER ITERATIONS.
    ------------------------------------------------

 NO OUTPUT CONTROL FOR STRESS PERIOD   12   TIME STEP    2
 
 SOLVING FOR HEAD 
                                                   Max.-Head-Change                         Max.-Flux-Residual
  Residual-Control   Outer-Iter.   Inner-Iter.     Column Row Layer    Maximum-Head-Change  Column Row Layer    Maximum-Flux-Residual          L2-NORM 
          0                 1           7            72   48     3      -0.3590141629E+01      72   48    1         0.6727481545E+05      0.5343376015E+06
          0                 2           6            72   48     3       0.3274653717E+00      72   48    1        -0.6766902534E+04      0.5400885066E+05
          0                 3           2            34   20     1       0.2378192781E-01      34   20    1         0.5293038313E+03      0.6183200307E+03
          0                 4           1            64   45     1       0.6596188149E-04      64   45    1         0.4517145351E+01      0.4877475811E+01

    ------------------------------------------------
       NWT REQUIRED            4 OUTER ITERATIONS 
       AND A TOTAL OF         16 INNER ITERATIONS.
    ------------------------------------------------

 NO OUTPUT CONTROL FOR STRESS PERIOD   12   TIME STEP    3

 INTERPOLATION FOR HEAD OBS# 6997, ID 683-12-102   CHANGED BECAUSE AT LEAST ONE
 NEIGHBORING CELL REQUIRED FOR INTERPOLATION IS DRY OR INACTIVE (OBS2BAS7SE)
 
 SOLVING FOR HEAD 
                                                   Max.-Head-Change                         Max.-Flux-Residual
  Residual-Control   Outer-Iter.   Inner-Iter.     Column Row Layer    Maximum-Head-Change  Column Row Layer    Maximum-Flux-Residual          L2-NORM 
          0                 1           7            72   47     3      -0.2085671989E+01      72   48    1         0.5582544382E+05      0.4841742034E+06
          0                 2           5            72   47     3       0.1896059825E+00      56   36    2         0.8436712882E+04      0.4910866942E+05
          0                 3           2            69  101     1       0.3762229917E-02      55   49    1         0.9008686835E+02      0.1111695701E+03

    ------------------------------------------------
       NWT REQUIRED            3 OUTER ITERATIONS 
       AND A TOTAL OF         14 INNER ITERATIONS.
    ------------------------------------------------

 NO OUTPUT CONTROL FOR STRESS PERIOD   12   TIME STEP    4
 
 SOLVING FOR HEAD 
                                                   Max.-Head-Change                         Max.-Flux-Residual
  Residual-Control   Outer-Iter.   Inner-Iter.     Column Row Layer    Maximum-Head-Change  Column Row Layer    Maximum-Flux-Residual          L2-NORM 
          0                 1           7            72   47     3      -0.1477864816E+01      72   48    1         0.4663552713E+05      0.4549056167E+06
          0                 2           5            72   47     3       0.1342932890E+00      72   48    1        -0.4682887101E+04      0.4563402447E+05
          0                 3           2            16   40     3       0.5042267007E-02      16   40    3         0.2673716575E+03      0.2677586902E+03

    ------------------------------------------------
       NWT REQUIRED            3 OUTER ITERATIONS 
       AND A TOTAL OF         14 INNER ITERATIONS.
    ------------------------------------------------

 NO OUTPUT CONTROL FOR STRESS PERIOD   12   TIME STEP    5
 
 SOLVING FOR HEAD 
                                                   Max.-Head-Change                         Max.-Flux-Residual
  Residual-Control   Outer-Iter.   Inner-Iter.     Column Row Layer    Maximum-Head-Change  Column Row Layer    Maximum-Flux-Residual          L2-NORM 
          0                 1           7            81   45     1       0.1238993950E+01      81   46    1         0.4068777415E+05      0.4355520279E+06
          0                 2           6            16   40     3       0.2170195122E+00      16   40    3         0.1362525162E+05      0.4599841483E+05
          0                 3           2            22   30     1       0.1286072343E-01      22   30    1         0.2980349613E+03      0.3929878535E+03
          0                 4           1            23   35     1      -0.1566131505E-03      23   35    1        -0.8942329749E+01      0.9503874006E+01

    ------------------------------------------------
       NWT REQUIRED            4 OUTER ITERATIONS 
       AND A TOTAL OF         16 INNER ITERATIONS.
    ------------------------------------------------

 NO OUTPUT CONTROL FOR STRESS PERIOD   12   TIME STEP    6
 
 SOLVING FOR HEAD 
                                                   Max.-Head-Change                         Max.-Flux-Residual
  Residual-Control   Outer-Iter.   Inner-Iter.     Column Row Layer    Maximum-Head-Change  Column Row Layer    Maximum-Flux-Residual          L2-NORM 
          0                 1           7            81   46     1       0.1168989915E+01      81   46    1         0.3760842363E+05      0.4216854024E+06
          0                 2           5            32   35     1      -0.4324658848E+00      23   35    1        -0.7514170977E+04      0.4319177539E+05
          0                 3           2            23   35     1       0.4221700321E-01      23   35    1         0.1171567788E+04      0.1299794502E+04
          0                 4           1            24   35     1      -0.5407599597E-03      24   35    1        -0.7026547942E+02      0.9737311402E+02

    ------------------------------------------------
       NWT REQUIRED            4 OUTER ITERATIONS 
       AND A TOTAL OF         15 INNER ITERATIONS.
    ------------------------------------------------

 NO OUTPUT CONTROL FOR STRESS PERIOD   12   TIME STEP    7
 
 SOLVING FOR HEAD 
                                                   Max.-Head-Change                         Max.-Flux-Residual
  Residual-Control   Outer-Iter.   Inner-Iter.     Column Row Layer    Maximum-Head-Change  Column Row Layer    Maximum-Flux-Residual          L2-NORM 
          0                 1           7            32   35     1      -0.1185215949E+01      81   46    1         0.3654402390E+05      0.4119124856E+06
          0                 2           5            34   34     1      -0.2087033947E+00      81   46    1        -0.3656467371E+04      0.4133013230E+05
          0                 3           2            34   34     1       0.1843354742E-01      16   39    2         0.3285902615E+03      0.4139966062E+03
          0                 4           1            34   34     1       0.5082919840E-04      58   76    2        -0.7012411137E+00      0.2515089438E+01

    ------------------------------------------------
       NWT REQUIRED            4 OUTER ITERATIONS 
       AND A TOTAL OF         15 INNER ITERATIONS.
    ------------------------------------------------

 NO OUTPUT CONTROL FOR STRESS PERIOD   12   TIME STEP    8

 INTERPOLATION FOR HEAD OBS# 1242, ID 2789-12-271  CHANGED BECAUSE AT LEAST ONE
 NEIGHBORING CELL REQUIRED FOR INTERPOLATION IS DRY OR INACTIVE (OBS2BAS7SE)
 
 SOLVING FOR HEAD 
                                                   Max.-Head-Change                         Max.-Flux-Residual
  Residual-Control   Outer-Iter.   Inner-Iter.     Column Row Layer    Maximum-Head-Change  Column Row Layer    Maximum-Flux-Residual          L2-NORM 
          0                 1           7            81   46     1       0.1101419235E+01      81   46    1         0.3548389384E+05      0.4042179719E+06
          0                 2           5            39   31     1      -0.7314256178E+00      39   31    1        -0.3635540670E+04      0.4056076283E+05
          0                 3           2            39   31     1       0.6271435395E-01      39   31    1         0.3433727153E+03      0.3518610961E+03
          0                 4           1            39   31     1       0.2905679546E-03      39   31    1         0.1681398351E+01      0.2289684619E+01

    ------------------------------------------------
       NWT REQUIRED            4 OUTER ITERATIONS 
       AND A TOTAL OF         15 INNER ITERATIONS.
    ------------------------------------------------

 NO OUTPUT CONTROL FOR STRESS PERIOD   12   TIME STEP    9
 
 SOLVING FOR HEAD 
                                                   Max.-Head-Change                         Max.-Flux-Residual
  Residual-Control   Outer-Iter.   Inner-Iter.     Column Row Layer    Maximum-Head-Change  Column Row Layer    Maximum-Flux-Residual          L2-NORM 
          0                 1           7            81   46     1       0.1068147308E+01      81   46    1         0.3443214953E+05      0.3982726682E+06
          0                 2           5            81   46     1      -0.9714752686E-01      81   46    1        -0.3445131199E+04      0.3992175523E+05
          0                 3           1            30    6     2       0.6281664926E-03      30    6    2         0.6876094954E+01      0.1638863097E+02

    ------------------------------------------------
       NWT REQUIRED            3 OUTER ITERATIONS 
       AND A TOTAL OF         13 INNER ITERATIONS.
    ------------------------------------------------

 NO OUTPUT CONTROL FOR STRESS PERIOD   12   TIME STEP   10

 INTERPOLATION FOR HEAD OBS# 6266, ID 987-12-324   CHANGED BECAUSE AT LEAST ONE
 NEIGHBORING CELL REQUIRED FOR INTERPOLATION IS DRY OR INACTIVE (OBS2BAS7SE)
 
 SOLVING FOR HEAD 
                                                   Max.-Head-Change                         Max.-Flux-Residual
  Residual-Control   Outer-Iter.   Inner-Iter.     Column Row Layer    Maximum-Head-Change  Column Row Layer    Maximum-Flux-Residual          L2-NORM 
          0                 1           7            81   46     1       0.1035349283E+01      81   46    1         0.3339225171E+05      0.3933510059E+06
          0                 2           5            22   31     1      -0.1085637299E+00      81   46    1        -0.3341050052E+04      0.3953553216E+05
          0                 3           2            30   17     2       0.1224833725E-01      30   17    2         0.6192886645E+03      0.7323513475E+03
          0                 4           1            30   17     3       0.5586378051E-04      66    8    3         0.1911159359E+02      0.1949408571E+02

    ------------------------------------------------
       NWT REQUIRED            4 OUTER ITERATIONS 
       AND A TOTAL OF         15 INNER ITERATIONS.
    ------------------------------------------------

 NO OUTPUT CONTROL FOR STRESS PERIOD   12   TIME STEP   11
 
 SOLVING FOR HEAD 
                                                   Max.-Head-Change                         Max.-Flux-Residual
  Residual-Control   Outer-Iter.   Inner-Iter.     Column Row Layer    Maximum-Head-Change  Column Row Layer    Maximum-Flux-Residual          L2-NORM 
          0                 1           7            81   46     1       0.1003103981E+01      81   46    1         0.3236715581E+05      0.3892066209E+06
          0                 2           5            30   17     2       0.1414432720E+00      30   17    2         0.9662185726E+04      0.4017840804E+05
          0                 3           2            22   33     1       0.8832841205E-02      22   33    1         0.2024036277E+03      0.2710457616E+03

    ------------------------------------------------
       NWT REQUIRED            3 OUTER ITERATIONS 
       AND A TOTAL OF         14 INNER ITERATIONS.
    ------------------------------------------------

 OUTPUT CONTROL FOR STRESS PERIOD   12   TIME STEP   12
    SAVE BUDGET
 UBDSV1 SAVING "         STORAGE" ON UNIT  39 AT TIME STEP 12, STRESS PERIOD  12
 UBDSV2 SAVING "   CONSTANT HEAD" ON UNIT  39 AT TIME STEP 12, STRESS PERIOD  12
 UBDSV1 SAVING "FLOW RIGHT FACE " ON UNIT  39 AT TIME STEP 12, STRESS PERIOD  12
 UBDSV1 SAVING "FLOW FRONT FACE " ON UNIT  39 AT TIME STEP 12, STRESS PERIOD  12
 UBDSV1 SAVING "FLOW LOWER FACE " ON UNIT  39 AT TIME STEP 12, STRESS PERIOD  12
 UBDSV4 SAVING "           WELLS" ON UNIT  39 AT TIME STEP 12, STRESS PERIOD  12
 UBDSV3 SAVING "              ET" ON UNIT  39 AT TIME STEP 12, STRESS PERIOD  12
 UBDSV3 SAVING "        RECHARGE" ON UNIT  39 AT TIME STEP 12, STRESS PERIOD  12
1
  VOLUMETRIC BUDGET FOR ENTIRE MODEL AT END OF TIME STEP   12, STRESS PERIOD  12
  ------------------------------------------------------------------------------

     CUMULATIVE VOLUMES      L**3       RATES FOR THIS TIME STEP      L**3/T
     ------------------                 ------------------------

           IN:                                      IN:
           ---                                      ---
             STORAGE = 32928843776.0000               STORAGE =    17513236.0000
       CONSTANT HEAD =  5267986432.0000         CONSTANT HEAD =     1349545.1250
               WELLS =  5371987968.0000                 WELLS =     1225642.0000
                  ET =           0.0000                    ET =           0.0000
            RECHARGE = 52908171264.0000              RECHARGE =    12224163.0000

            TOTAL IN = 96476987392.0000              TOTAL IN =    32312586.0000

          OUT:                                     OUT:
          ----                                     ----
             STORAGE =  4171267584.0000               STORAGE =      600926.3750
       CONSTANT HEAD = 14906660864.0000         CONSTANT HEAD =     3858035.0000
               WELLS = 72086765568.0000                 WELLS =    26977902.0000
                  ET =  5312378880.0000                    ET =      875732.6875
            RECHARGE =           0.0000              RECHARGE =           0.0000

           TOTAL OUT = 96477077504.0000             TOTAL OUT =    32312594.0000

            IN - OUT =      -90112.0000              IN - OUT =          -8.0000

 PERCENT DISCREPANCY =          -0.00     PERCENT DISCREPANCY =          -0.00






         TIME SUMMARY AT END OF TIME STEP   12 IN STRESS PERIOD   12
                    SECONDS     MINUTES      HOURS       DAYS        YEARS
                    -----------------------------------------------------------
   TIME STEP LENGTH 2.62800E+06  43800.      730.00      30.417     8.32763E-02
 STRESS PERIOD TIME 3.15360E+07 5.25600E+05  8760.0      365.00     0.99932    
         TOTAL TIME 3.78691E+08 6.31152E+06 1.05192E+05  4383.0      12.000    
1
1
                            STRESS PERIOD NO.   13, LENGTH =   366.0000    
                            -----------------------------------------------

                              NUMBER OF TIME STEPS =    12

                               MULTIPLIER FOR DELT =     1.000

                            INITIAL TIME STEP SIZE =   30.50000    

   1472 WELLS

 REUSING SURF FROM LAST STRESS PERIOD

 REUSING EVTR FROM LAST STRESS PERIOD

 REUSING EXDP FROM LAST STRESS PERIOD



                           RECHARGE
 READING ON UNIT   16 WITH FORMAT: (15F5.0)            


     63 TIME-VARIANT SPECIFIED-HEAD CELLS
 
 SOLVING FOR HEAD 
                                                   Max.-Head-Change                         Max.-Flux-Residual
  Residual-Control   Outer-Iter.   Inner-Iter.     Column Row Layer    Maximum-Head-Change  Column Row Layer    Maximum-Flux-Residual          L2-NORM 
          0                 1           8            92   77     2      -0.1350126462E+02      23   46    3        -0.3109438905E+06      0.8818877406E+06
          0                 2           6            92   77     2       0.1670490579E+01      23   46    3         0.2322123873E+05      0.8612074959E+05
          0                 3           2            56   36     1       0.1128142245E+00      16   41    3         0.7463642936E+03      0.1389896044E+04
          0                 4           2            92   77     2       0.5087880602E-02      66    8    3        -0.3181961017E+03      0.3250432077E+03

    ------------------------------------------------
       NWT REQUIRED            4 OUTER ITERATIONS 
       AND A TOTAL OF         18 INNER ITERATIONS.
    ------------------------------------------------

 NO OUTPUT CONTROL FOR STRESS PERIOD   13   TIME STEP    1
 
 SOLVING FOR HEAD 
                                                   Max.-Head-Change                         Max.-Flux-Residual
  Residual-Control   Outer-Iter.   Inner-Iter.     Column Row Layer    Maximum-Head-Change  Column Row Layer    Maximum-Flux-Residual          L2-NORM 
          0                 1           7            23   46     2      -0.2820577480E+01      59  103    1        -0.7707392525E+05      0.5366301364E+06
          0                 2           6            23   46     2       0.2467299455E+00      59  103    1         0.7430031118E+04      0.5378696164E+05
          0                 3           2            16   38     2       0.1301627353E-01      66    8    3        -0.4577644970E+03      0.5819989843E+03
          0                 4           1            21   45     3      -0.5013719372E-04      66    8    3        -0.4575593196E+03      0.4575730814E+03

    ------------------------------------------------
       NWT REQUIRED            4 OUTER ITERATIONS 
       AND A TOTAL OF         16 INNER ITERATIONS.
    ------------------------------------------------

 NO OUTPUT CONTROL FOR STRESS PERIOD   13   TIME STEP    2
 
 SOLVING FOR HEAD 
                                                   Max.-Head-Change                         Max.-Flux-Residual
  Residual-Control   Outer-Iter.   Inner-Iter.     Column Row Layer    Maximum-Head-Change  Column Row Layer    Maximum-Flux-Residual          L2-NORM 
          0                 1           7            23   46     2      -0.2069322439E+01      59  103    1        -0.4519769830E+05      0.4955680571E+06
          0                 2           6            23   46     2       0.1834024084E+00      59  103    1         0.4424668137E+04      0.4987795284E+05
          0                 3           2            16   41     2       0.9329755221E-02      66    8    3        -0.5871137739E+03      0.6915115036E+03

    ------------------------------------------------
       NWT REQUIRED            3 OUTER ITERATIONS 
       AND A TOTAL OF         15 INNER ITERATIONS.
    ------------------------------------------------

 NO OUTPUT CONTROL FOR STRESS PERIOD   13   TIME STEP    3
 
 SOLVING FOR HEAD 
                                                   Max.-Head-Change                         Max.-Flux-Residual
  Residual-Control   Outer-Iter.   Inner-Iter.     Column Row Layer    Maximum-Head-Change  Column Row Layer    Maximum-Flux-Residual          L2-NORM 
          0                 1           7            23   46     2      -0.1644846251E+01      23   46    2        -0.3021077694E+05      0.4788070869E+06
          0                 2           6            18   47     3       0.2037948978E+00      18   47    3         0.9516247035E+04      0.4935852282E+05
          0                 3           2            18   47     2      -0.2154616364E-01      18   47    2        -0.1073364047E+04      0.1469570525E+04
          0                 4           2            18   47     2      -0.1950594145E-02      66    8    3        -0.7088081921E+03      0.7154076510E+03

    ------------------------------------------------
       NWT REQUIRED            4 OUTER ITERATIONS 
       AND A TOTAL OF         17 INNER ITERATIONS.
    ------------------------------------------------

 NO OUTPUT CONTROL FOR STRESS PERIOD   13   TIME STEP    4
 
 SOLVING FOR HEAD 
                                                   Max.-Head-Change                         Max.-Flux-Residual
  Residual-Control   Outer-Iter.   Inner-Iter.     Column Row Layer    Maximum-Head-Change  Column Row Layer    Maximum-Flux-Residual          L2-NORM 
          0                 1           7            23   46     2      -0.1387208111E+01      37   28    1        -0.2578146967E+05      0.4697830762E+06
          0                 2           6            18   47     2      -0.3721961821E+00      18   47    2        -0.8370089303E+04      0.4817266805E+05
          0                 3           2            18   47     2       0.3341644567E-01      18   47    2         0.8262651050E+03      0.1353701299E+04
          0                 4           1            18   47     2       0.4896966700E-04      66    8    3        -0.8244597518E+03      0.8244638013E+03

    ------------------------------------------------
       NWT REQUIRED            4 OUTER ITERATIONS 
       AND A TOTAL OF         16 INNER ITERATIONS.
    ------------------------------------------------

 NO OUTPUT CONTROL FOR STRESS PERIOD   13   TIME STEP    5
 
 SOLVING FOR HEAD 
                                                   Max.-Head-Change                         Max.-Flux-Residual
  Residual-Control   Outer-Iter.   Inner-Iter.     Column Row Layer    Maximum-Head-Change  Column Row Layer    Maximum-Flux-Residual          L2-NORM 
          0                 1           7            23   46     2      -0.1216543895E+01      37   28    1        -0.2332958519E+05      0.4642380345E+06
          0                 2           6            36   18     2      -0.1332581696E+01      19   24    2         0.1020607998E+05      0.4912220698E+05
          0                 3           2            36   18     2       0.1087262070E+00      18   20    1        -0.2402390490E+04      0.2647877443E+04
          0                 4           2            18   20     1      -0.2658459893E-02      66    8    3        -0.9353333044E+03      0.9600169190E+03
          0                 5           1            18   20     1      -0.2382757974E-03      66    8    3        -0.9348898968E+03      0.9350923023E+03
          0                 6           1            66    8     3      -0.2302465640E-04      66    8    3        -0.9344442244E+03      0.9344460371E+03
          0                 7           1            66    8     3      -0.2301356097E-04      66    8    3        -0.9339974654E+03      0.9339976525E+03
          0                 8           1            66    8     3      -0.2300235300E-04      66    8    3        -0.9335473020E+03      0.9335474742E+03
          0                 9           1            66    8     3      -0.2299109950E-04      66    8    3        -0.9330922202E+03      0.9330923920E+03
          0                10           1            66    8     3      -0.2297978197E-04      66    8    3        -0.9326353002E+03      0.9326354719E+03
                                                   Max.-Head-Change                         Max.-Flux-Residual
  Residual-Control   Outer-Iter.   Inner-Iter.     Column Row Layer    Maximum-Head-Change  Column Row Layer    Maximum-Flux-Residual          L2-NORM 
          0                11           1            66    8     3      -0.2296839742E-04      66    8    3        -0.9321759018E+03      0.9321760734E+03
          0                12           1            66    8     3      -0.2295694383E-04      66    8    3        -0.9317137953E+03      0.9317139669E+03
          0                13           1            66    8     3      -0.2294542172E-04      66    8    3        -0.9312489190E+03      0.9312490904E+03
          0                14           1            66    8     3      -0.2293383157E-04      66    8    3        -0.9307812597E+03      0.9307814310E+03
          0                15           1            66    8     3      -0.2292217240E-04      66    8    3        -0.9303108183E+03      0.9303109896E+03
          0                16           1            66    8     3      -0.2291044469E-04      66    8    3        -0.9298375995E+03      0.9298377707E+03
          0                17           1            66    8     3      -0.2289864895E-04      66    8    3        -0.9293616089E+03      0.9293617800E+03
          0                18           1            66    8     3      -0.2288678569E-04      66    8    3        -0.9288828523E+03      0.9288830234E+03
          0                19           1            66    8     3      -0.2287485389E-04      66    8    3        -0.9284013360E+03      0.9284015069E+03
          0                20           1            66    8     3      -0.2286285456E-04      66    8    3        -0.9279170658E+03      0.9279172367E+03
                                                   Max.-Head-Change                         Max.-Flux-Residual
  Residual-Control   Outer-Iter.   Inner-Iter.     Column Row Layer    Maximum-Head-Change  Column Row Layer    Maximum-Flux-Residual          L2-NORM 
          0                21           1            66    8     3      -0.2285078770E-04      66    8    3        -0.9274300481E+03      0.9274302189E+03
          0                22           1            66    8     3      -0.2283865332E-04      66    8    3        -0.9269402891E+03      0.9269404598E+03
          0                23           1            66    8     3      -0.2282645140E-04      66    8    3        -0.9264477947E+03      0.9264479654E+03
          0                24           1            66    8     3      -0.2281418295E-04      66    8    3        -0.9259525715E+03      0.9259527420E+03
          0                25           1            66    8     3      -0.2280184698E-04      66    8    3        -0.9254546256E+03      0.9254547960E+03
          0                26           1            66    8     3      -0.2278944447E-04      66    8    3        -0.9249539632E+03      0.9249541336E+03
          0                27           1            66    8     3      -0.2277697493E-04      66    8    3        -0.9244505908E+03      0.9244507611E+03
          0                28           1            66    8     3      -0.2276443937E-04      66    8    3        -0.9239445147E+03      0.9239446849E+03
          0                29           1            66    8     3      -0.2275183727E-04      66    8    3        -0.9234357412E+03      0.9234359113E+03
          0                30           1            66    8     3      -0.2273916865E-04      66    8    3        -0.9229242768E+03      0.9229244468E+03
                                                   Max.-Head-Change                         Max.-Flux-Residual
  Residual-Control   Outer-Iter.   Inner-Iter.     Column Row Layer    Maximum-Head-Change  Column Row Layer    Maximum-Flux-Residual          L2-NORM 
          0                31           1            66    8     3      -0.2272643449E-04      66    8    3        -0.9224101279E+03      0.9224102978E+03
          0                32           1            66    8     3      -0.2271363431E-04      66    8    3        -0.9218933010E+03      0.9218934708E+03
          0                33           1            66    8     3      -0.2270076860E-04      66    8    3        -0.9213738026E+03      0.9213739723E+03
          0                34           1            66    8     3      -0.2268783686E-04      66    8    3        -0.9208516392E+03      0.9208518088E+03
          0                35           1            66    8     3      -0.2267484009E-04      66    8    3        -0.9203268173E+03      0.9203269868E+03
          0                36           1            66    8     3      -0.2266177829E-04      66    8    3        -0.9197993435E+03      0.9197995130E+03
          0                37           1            66    8     3      -0.2264865096E-04      66    8    3        -0.9192692245E+03      0.9192693939E+03
          0                38           1            66    8     3      -0.2263545910E-04      66    8    3        -0.9187364668E+03      0.9187366361E+03
          0                39           1            66    8     3      -0.2262220272E-04      66    8    3        -0.9182010772E+03      0.9182012464E+03
          0                40           1            66    8     3      -0.2260888080E-04      66    8    3        -0.9176630623E+03      0.9176632314E+03
                                                   Max.-Head-Change                         Max.-Flux-Residual
  Residual-Control   Outer-Iter.   Inner-Iter.     Column Row Layer    Maximum-Head-Change  Column Row Layer    Maximum-Flux-Residual          L2-NORM 
          0                41           1            66    8     3      -0.2259549536E-04      66    8    3        -0.9171224288E+03      0.9171225978E+03
          0                42           1            66    8     3      -0.2258204539E-04      66    8    3        -0.9165791834E+03      0.9165793523E+03
          0                43           1            66    8     3      -0.2256853189E-04      66    8    3        -0.9160333330E+03      0.9160335018E+03
          0                44           1            66    8     3      -0.2255495336E-04      66    8    3        -0.9154848843E+03      0.9154850530E+03
          0                45           1            66    8     3      -0.2254131180E-04      66    8    3        -0.9149338441E+03      0.9149340128E+03
          0                46           1            66    8     3      -0.2252760672E-04      66    8    3        -0.9143802194E+03      0.9143803879E+03
          0                47           1            66    8     3      -0.2251383861E-04      66    8    3        -0.9138240169E+03      0.9138241853E+03
          0                48           1            66    8     3      -0.2250000647E-04      66    8    3        -0.9132652435E+03      0.9132654118E+03
          0                49           1            66    8     3      -0.2248611180E-04      66    8    3        -0.9127039062E+03      0.9127040744E+03
          0                50           1            66    8     3      -0.2247215410E-04      66    8    3        -0.9121400119E+03      0.9121401800E+03
                                                   Max.-Head-Change                         Max.-Flux-Residual
  Residual-Control   Outer-Iter.   Inner-Iter.     Column Row Layer    Maximum-Head-Change  Column Row Layer    Maximum-Flux-Residual          L2-NORM 
          0                51           1            66    8     3      -0.2245813337E-04      66    8    3        -0.9115735676E+03      0.9115737356E+03
          0                52           1            66    8     3      -0.2244405062E-04      66    8    3        -0.9110045802E+03      0.9110047482E+03
          0                53           1            66    8     3      -0.2242990534E-04      66    8    3        -0.9104330569E+03      0.9104332247E+03
          0                54           1            66    8     3      -0.2241569803E-04      66    8    3        -0.9098590046E+03      0.9098591723E+03
          0                55           1            66    8     3      -0.2240142820E-04      66    8    3        -0.9092824304E+03      0.9092825980E+03
          0                56           1            66    8     3      -0.2238709684E-04      66    8    3        -0.9087033414E+03      0.9087035089E+03
          0                57           1            66    8     3      -0.2237270445E-04      66    8    3        -0.9081217447E+03      0.9081219121E+03
          0                58           1            66    8     3      -0.2235824953E-04      66    8    3        -0.9075376475E+03      0.9075378148E+03
          0                59           1            66    8     3      -0.2234373358E-04      66    8    3        -0.9069510568E+03      0.9069512241E+03
          0                60           1            66    8     3      -0.2232915711E-04      66    8    3        -0.9063619800E+03      0.9063621471E+03
                                                   Max.-Head-Change                         Max.-Flux-Residual
  Residual-Control   Outer-Iter.   Inner-Iter.     Column Row Layer    Maximum-Head-Change  Column Row Layer    Maximum-Flux-Residual          L2-NORM 
          0                61           1            66    8     3      -0.2231451961E-04      66    8    3        -0.9057704242E+03      0.9057705912E+03
          0                62           1            66    8     3      -0.2229982059E-04      66    8    3        -0.9051763966E+03      0.9051765636E+03
          0                63           1            66    8     3      -0.2228506153E-04      66    8    3        -0.9045799046E+03      0.9045800714E+03
          0                64           1            66    8     3      -0.2227024196E-04      66    8    3        -0.9039809553E+03      0.9039811220E+03
          0                65           1            66    8     3      -0.2225536235E-04      66    8    3        -0.9033795561E+03      0.9033797227E+03
          0                66           1            66    8     3      -0.2224042222E-04      66    8    3        -0.9027757142E+03      0.9027758807E+03
          0                67           1            66    8     3      -0.2222542256E-04      66    8    3        -0.9021694372E+03      0.9021696035E+03
          0                68           1            66    8     3      -0.2221036287E-04      66    8    3        -0.9015607322E+03      0.9015608985E+03
          0                69           1            66    8     3      -0.2219524416E-04      66    8    3        -0.9009496067E+03      0.9009497729E+03
          0                70           1            66    8     3      -0.2218006592E-04      66    8    3        -0.9003360682E+03      0.9003362342E+03
                                                   Max.-Head-Change                         Max.-Flux-Residual
  Residual-Control   Outer-Iter.   Inner-Iter.     Column Row Layer    Maximum-Head-Change  Column Row Layer    Maximum-Flux-Residual          L2-NORM 
          0                71           1            66    8     3      -0.2216482865E-04      66    8    3        -0.8997201239E+03      0.8997202899E+03
          0                72           1            66    8     3      -0.2214953236E-04      66    8    3        -0.8991017815E+03      0.8991019473E+03
          0                73           1            66    8     3      -0.2213417705E-04      66    8    3        -0.8984810483E+03      0.8984812140E+03
          0                74           1            66    8     3      -0.2211876320E-04      66    8    3        -0.8978579319E+03      0.8978580975E+03
          0                75           1            66    8     3      -0.2210329133E-04      66    8    3        -0.8972324397E+03      0.8972326052E+03
          0                76           1            66    8     3      -0.2208776144E-04      66    8    3        -0.8966045793E+03      0.8966047447E+03
          0                77           1            66    8     3      -0.2207217302E-04      66    8    3        -0.8959743583E+03      0.8959745236E+03
          0                78           1            66    8     3      -0.2205652707E-04      66    8    3        -0.8953417842E+03      0.8953419494E+03
          0                79           1            66    8     3      -0.2204082310E-04      66    8    3        -0.8947068646E+03      0.8947070297E+03
          0                80           1            66    8     3      -0.2202506210E-04      66    8    3        -0.8940696072E+03      0.8940697722E+03
                                                   Max.-Head-Change                         Max.-Flux-Residual
  Residual-Control   Outer-Iter.   Inner-Iter.     Column Row Layer    Maximum-Head-Change  Column Row Layer    Maximum-Flux-Residual          L2-NORM 
          0                81           1            66    8     3      -0.2200924358E-04      66    8    3        -0.8934300195E+03      0.8934301844E+03
          0                82           1            66    8     3      -0.2199336803E-04      66    8    3        -0.8927881093E+03      0.8927882740E+03
          0                83           1            66    8     3      -0.2197743546E-04      66    8    3        -0.8921438842E+03      0.8921440488E+03
          0                84           1            66    8     3      -0.2196144586E-04      66    8    3        -0.8914973518E+03      0.8914975163E+03
          0                85           1            66    8     3      -0.2194540073E-04      66    8    3        -0.8908485199E+03      0.8908486843E+03
          0                86           1            66    8     3      -0.2192929858E-04      66    8    3        -0.8901973963E+03      0.8901975606E+03
          0                87           1            66    8     3      -0.2191314041E-04      66    8    3        -0.8895439886E+03      0.8895441528E+03
          0                88           1            66    8     3      -0.2189692621E-04      66    8    3        -0.8888883047E+03      0.8888884687E+03
          0                89           1            66    8     3      -0.2188065649E-04      66    8    3        -0.8882303522E+03      0.8882305162E+03
          0                90           2            66    8     3      -0.3241368769E-01      66    8    3        -0.8875713232E+03      0.8875714870E+03
          0                91           2            66    8     3       0.2945836468E-02      66    8    3         0.1057580001E+03      0.1144453242E+03

    ------------------------------------------------
       NWT REQUIRED           91 OUTER ITERATIONS 
       AND A TOTAL OF        106 INNER ITERATIONS.
    ------------------------------------------------

 NO OUTPUT CONTROL FOR STRESS PERIOD   13   TIME STEP    6
 
 SOLVING FOR HEAD 
                                                   Max.-Head-Change                         Max.-Flux-Residual
  Residual-Control   Outer-Iter.   Inner-Iter.     Column Row Layer    Maximum-Head-Change  Column Row Layer    Maximum-Flux-Residual          L2-NORM 
          0                 1           7            23   46     2      -0.1100256360E+01      36   27    1        -0.2225083677E+05      0.4598334848E+06
          0                 2           6            18   20     1      -0.1922793794E+00      18   20    1        -0.7670903330E+04      0.4757046343E+05
          0                 3           2            18   20     1       0.2122469038E-01      18   20    1         0.9450618515E+03      0.1157643401E+04
          0                 4           1            19   20     1      -0.1453283960E-03      19   20    1        -0.1493488924E+02      0.1576416368E+02

    ------------------------------------------------
       NWT REQUIRED            4 OUTER ITERATIONS 
       AND A TOTAL OF         16 INNER ITERATIONS.
    ------------------------------------------------

 NO OUTPUT CONTROL FOR STRESS PERIOD   13   TIME STEP    7
 
 SOLVING FOR HEAD 
                                                   Max.-Head-Change                         Max.-Flux-Residual
  Residual-Control   Outer-Iter.   Inner-Iter.     Column Row Layer    Maximum-Head-Change  Column Row Layer    Maximum-Flux-Residual          L2-NORM 
          0                 1           7            23   46     2      -0.1015868606E+01      32   27    1        -0.2194084708E+05      0.4565519154E+06
          0                 2           6            80   61     1      -0.3834464258E+00      16   42    2        -0.5844759480E+04      0.4645683367E+05
          0                 3           2            16   33     2       0.2978151956E-01      16   42    2         0.5780319307E+03      0.7879811564E+03
          0                 4           1            80   61     1       0.5502007231E-03      16   33    2         0.9147358686E+00      0.3117006505E+01

    ------------------------------------------------
       NWT REQUIRED            4 OUTER ITERATIONS 
       AND A TOTAL OF         16 INNER ITERATIONS.
    ------------------------------------------------

 NO OUTPUT CONTROL FOR STRESS PERIOD   13   TIME STEP    8
 
 SOLVING FOR HEAD 
                                                   Max.-Head-Change                         Max.-Flux-Residual
  Residual-Control   Outer-Iter.   Inner-Iter.     Column Row Layer    Maximum-Head-Change  Column Row Layer    Maximum-Flux-Residual          L2-NORM 
          0                 1           7            23   46     2      -0.9514895073E+00      32   27    1        -0.2179892213E+05      0.4539142566E+06
          0                 2           6            37   22     1      -0.4211296882E+00      37   22    1        -0.7481582381E+04      0.4661371327E+05
          0                 3           2            37   22     1       0.3761916248E-01      49   34    1        -0.1219169808E+04      0.1521736134E+04
          0                 4           2            49   34     1      -0.1477912594E-02      49   34    1        -0.1101411093E+03      0.1102362937E+03

    ------------------------------------------------
       NWT REQUIRED            4 OUTER ITERATIONS 
       AND A TOTAL OF         17 INNER ITERATIONS.
    ------------------------------------------------

 NO OUTPUT CONTROL FOR STRESS PERIOD   13   TIME STEP    9
 
 SOLVING FOR HEAD 
                                                   Max.-Head-Change                         Max.-Flux-Residual
  Residual-Control   Outer-Iter.   Inner-Iter.     Column Row Layer    Maximum-Head-Change  Column Row Layer    Maximum-Flux-Residual          L2-NORM 
          0                 1           7            23   46     2      -0.9005996437E+00      32   27    1        -0.2166849245E+05      0.4517269300E+06
          0                 2           6            49   34     1      -0.1228265881E+00      22   32    2         0.4929019378E+04      0.4565153950E+05
          0                 3           2            49   34     1       0.1104700662E-01      49   34    1         0.4453830296E+03      0.4677280279E+03
          0                 4           1            27   42     3       0.2228853034E-04      79   87    2         0.1338186270E+02      0.1344018633E+02

    ------------------------------------------------
       NWT REQUIRED            4 OUTER ITERATIONS 
       AND A TOTAL OF         16 INNER ITERATIONS.
    ------------------------------------------------

 NO OUTPUT CONTROL FOR STRESS PERIOD   13   TIME STEP   10
 
 SOLVING FOR HEAD 
                                                   Max.-Head-Change                         Max.-Flux-Residual
  Residual-Control   Outer-Iter.   Inner-Iter.     Column Row Layer    Maximum-Head-Change  Column Row Layer    Maximum-Flux-Residual          L2-NORM 
          0                 1           7            23   46     2      -0.8591749230E+00      32   27    1        -0.2154394174E+05      0.4498043048E+06
          0                 2           6            24    7     1      -0.3112426563E+00      22   25    2         0.8823324467E+04      0.4631415959E+05
          0                 3           2            22   25     1      -0.4815667782E-01      22   25    1        -0.3516968031E+04      0.3574790689E+04
          0                 4           2            22   25     1      -0.4339366187E-02      22   25    1        -0.3166132901E+03      0.3213736621E+03

    ------------------------------------------------
       NWT REQUIRED            4 OUTER ITERATIONS 
       AND A TOTAL OF         17 INNER ITERATIONS.
    ------------------------------------------------

 NO OUTPUT CONTROL FOR STRESS PERIOD   13   TIME STEP   11
 
 SOLVING FOR HEAD 
                                                   Max.-Head-Change                         Max.-Flux-Residual
  Residual-Control   Outer-Iter.   Inner-Iter.     Column Row Layer    Maximum-Head-Change  Column Row Layer    Maximum-Flux-Residual          L2-NORM 
          0                 1           7            23   46     2      -0.8247076460E+00      32   27    1        -0.2142182751E+05      0.4479143629E+06
          0                 2           6            22   25     1      -0.2516532709E+00      22   25    1        -0.8876560337E+04      0.4620190167E+05
          0                 3           2            22   25     1       0.2264557556E-01      22   25    1         0.8767007758E+03      0.9261728978E+03
          0                 4           2            79   87     2      -0.4128601920E-02      79   87    2        -0.1126691589E+03      0.1126744285E+03

    ------------------------------------------------
       NWT REQUIRED            4 OUTER ITERATIONS 
       AND A TOTAL OF         17 INNER ITERATIONS.
    ------------------------------------------------

 OUTPUT CONTROL FOR STRESS PERIOD   13   TIME STEP   12
    SAVE BUDGET
 UBDSV1 SAVING "         STORAGE" ON UNIT  39 AT TIME STEP 12, STRESS PERIOD  13
 UBDSV2 SAVING "   CONSTANT HEAD" ON UNIT  39 AT TIME STEP 12, STRESS PERIOD  13
 UBDSV1 SAVING "FLOW RIGHT FACE " ON UNIT  39 AT TIME STEP 12, STRESS PERIOD  13
 UBDSV1 SAVING "FLOW FRONT FACE " ON UNIT  39 AT TIME STEP 12, STRESS PERIOD  13
 UBDSV1 SAVING "FLOW LOWER FACE " ON UNIT  39 AT TIME STEP 12, STRESS PERIOD  13
 UBDSV4 SAVING "           WELLS" ON UNIT  39 AT TIME STEP 12, STRESS PERIOD  13
 UBDSV3 SAVING "              ET" ON UNIT  39 AT TIME STEP 12, STRESS PERIOD  13
 UBDSV3 SAVING "        RECHARGE" ON UNIT  39 AT TIME STEP 12, STRESS PERIOD  13
1
  VOLUMETRIC BUDGET FOR ENTIRE MODEL AT END OF TIME STEP   12, STRESS PERIOD  13
  ------------------------------------------------------------------------------

     CUMULATIVE VOLUMES      L**3       RATES FOR THIS TIME STEP      L**3/T
     ------------------                 ------------------------

           IN:                                      IN:
           ---                                      ---
             STORAGE = 40861233152.0000               STORAGE =    21502960.0000
       CONSTANT HEAD =  5786647552.0000         CONSTANT HEAD =     1441823.1250
               WELLS =  5820573696.0000                 WELLS =     1225642.0000
                  ET =           0.0000                    ET =           0.0000
            RECHARGE = 57380708352.0000              RECHARGE =    12220105.0000

            TOTAL IN =109849165824.0000              TOTAL IN =    36390528.0000

          OUT:                                     OUT:
          ----                                     ----
             STORAGE =  4272428032.0000               STORAGE =      166489.5000
       CONSTANT HEAD = 16302771200.0000         CONSTANT HEAD =     3803898.0000
               WELLS = 83666681856.0000                 WELLS =    31639220.0000
                  ET =  5607442432.0000                    ET =      780919.7500
            RECHARGE =           0.0000              RECHARGE =           0.0000

           TOTAL OUT =109849321472.0000             TOTAL OUT =    36390528.0000

            IN - OUT =     -155648.0000              IN - OUT =           0.0000

 PERCENT DISCREPANCY =          -0.00     PERCENT DISCREPANCY =           0.00






         TIME SUMMARY AT END OF TIME STEP   12 IN STRESS PERIOD   13
                    SECONDS     MINUTES      HOURS       DAYS        YEARS
                    -----------------------------------------------------------
   TIME STEP LENGTH 2.63520E+06  43920.      732.00      30.500     8.35044E-02
 STRESS PERIOD TIME 3.16224E+07 5.27040E+05  8784.0      366.00      1.0021    
         TOTAL TIME 4.10314E+08 6.83856E+06 1.13976E+05  4749.0      13.002    
1
1
                            STRESS PERIOD NO.   14, LENGTH =   365.0000    
                            -----------------------------------------------

                              NUMBER OF TIME STEPS =    12

                               MULTIPLIER FOR DELT =     1.000

                            INITIAL TIME STEP SIZE =   30.41667    

   1546 WELLS

 REUSING SURF FROM LAST STRESS PERIOD

 REUSING EVTR FROM LAST STRESS PERIOD

 REUSING EXDP FROM LAST STRESS PERIOD



                           RECHARGE
 READING ON UNIT   16 WITH FORMAT: (15F5.0)            


     63 TIME-VARIANT SPECIFIED-HEAD CELLS
 
 SOLVING FOR HEAD 
                                                   Max.-Head-Change                         Max.-Flux-Residual
  Residual-Control   Outer-Iter.   Inner-Iter.     Column Row Layer    Maximum-Head-Change  Column Row Layer    Maximum-Flux-Residual          L2-NORM 
          0                 1           8            92   77     2      -0.1485006181E+02      63   95    1        -0.1498648995E+06      0.7036920075E+06
          0                 2           6            32   62     2       0.1123015355E+01      32   62    2         0.6046672041E+05      0.9223499402E+05
          0                 3           3            32   61     2       0.8495399786E-01      32   61    2         0.2452067987E+04      0.2543631197E+04
          0                 4           2            92   77     2       0.1443822574E-02      32   61    2        -0.1561956360E+02      0.2238068921E+02

    ------------------------------------------------
       NWT REQUIRED            4 OUTER ITERATIONS 
       AND A TOTAL OF         19 INNER ITERATIONS.
    ------------------------------------------------

 NO OUTPUT CONTROL FOR STRESS PERIOD   14   TIME STEP    1
 
 SOLVING FOR HEAD 
                                                   Max.-Head-Change                         Max.-Flux-Residual
  Residual-Control   Outer-Iter.   Inner-Iter.     Column Row Layer    Maximum-Head-Change  Column Row Layer    Maximum-Flux-Residual          L2-NORM 
          0                 1           7            72   48     3      -0.3121765062E+01      81   45    1        -0.7392778032E+05      0.5428095337E+06
          0                 2           6            72   48     3       0.2837936448E+00      32   61    2         0.9134020917E+04      0.5509847682E+05
          0                 3           2            32   62     1       0.1150248742E-01      32   62    2        -0.2266265143E+03      0.3247813558E+03
          0                 4           1            92   77     2       0.2812886366E-04      32   61    2        -0.1771524658E+01      0.2014121800E+01

    ------------------------------------------------
       NWT REQUIRED            4 OUTER ITERATIONS 
       AND A TOTAL OF         16 INNER ITERATIONS.
    ------------------------------------------------

 NO OUTPUT CONTROL FOR STRESS PERIOD   14   TIME STEP    2
 
 SOLVING FOR HEAD 
                                                   Max.-Head-Change                         Max.-Flux-Residual
  Residual-Control   Outer-Iter.   Inner-Iter.     Column Row Layer    Maximum-Head-Change  Column Row Layer    Maximum-Flux-Residual          L2-NORM 
          0                 1           7            32   62     1      -0.2933024611E+01      81   46    1        -0.7050482618E+05      0.5054067858E+06
          0                 2           6            32   62     1       0.2584663627E+00      81   46    1         0.7042958211E+04      0.5073033335E+05
          0                 3           1            31   37     1       0.5803371640E-03      32   62    1         0.6935802557E+01      0.2306272962E+02

    ------------------------------------------------
       NWT REQUIRED            3 OUTER ITERATIONS 
       AND A TOTAL OF         14 INNER ITERATIONS.
    ------------------------------------------------

 NO OUTPUT CONTROL FOR STRESS PERIOD   14   TIME STEP    3
 
 SOLVING FOR HEAD 
                                                   Max.-Head-Change                         Max.-Flux-Residual
  Residual-Control   Outer-Iter.   Inner-Iter.     Column Row Layer    Maximum-Head-Change  Column Row Layer    Maximum-Flux-Residual          L2-NORM 
          0                 1           7            81   46     1      -0.2121787228E+01      81   46    1        -0.6839990829E+05      0.4884407137E+06
          0                 2           6            32   61     1      -0.7241400382E+00      32   61    1        -0.9032516939E+04      0.4964070859E+05
          0                 3           2            32   61     1       0.6800412894E-01      32   61    1         0.9471588747E+03      0.9781584351E+03
          0                 4           1            32   61     1       0.1313829239E-03      33   61    1        -0.4451832056E+01      0.5183961768E+01

    ------------------------------------------------
       NWT REQUIRED            4 OUTER ITERATIONS 
       AND A TOTAL OF         16 INNER ITERATIONS.
    ------------------------------------------------

 NO OUTPUT CONTROL FOR STRESS PERIOD   14   TIME STEP    4
 
 SOLVING FOR HEAD 
                                                   Max.-Head-Change                         Max.-Flux-Residual
  Residual-Control   Outer-Iter.   Inner-Iter.     Column Row Layer    Maximum-Head-Change  Column Row Layer    Maximum-Flux-Residual          L2-NORM 
          0                 1           7            81   46     1      -0.2057228758E+01      81   46    1        -0.6633874173E+05      0.4778286499E+06
          0                 2           6            38   33     2       0.1871242537E+00      81   46    1         0.6626775028E+04      0.4809850693E+05
          0                 3           2            35   21     2       0.1194277196E-01      35   21    2         0.4345584776E+03      0.4352566037E+03
          0                 4           1            33   22     3       0.3522122944E-04      84   51    1        -0.5232471479E+00      0.1600835855E+01

    ------------------------------------------------
       NWT REQUIRED            4 OUTER ITERATIONS 
       AND A TOTAL OF         16 INNER ITERATIONS.
    ------------------------------------------------

 NO OUTPUT CONTROL FOR STRESS PERIOD   14   TIME STEP    5
 
 SOLVING FOR HEAD 
                                                   Max.-Head-Change                         Max.-Flux-Residual
  Residual-Control   Outer-Iter.   Inner-Iter.     Column Row Layer    Maximum-Head-Change  Column Row Layer    Maximum-Flux-Residual          L2-NORM 
          0                 1           7            81   46     1      -0.1994048972E+01      81   46    1        -0.6431945948E+05      0.4705971563E+06
          0                 2           6            60   41     1      -0.7170018000E+00      81   46    1         0.1198806842E+05      0.4957752152E+05
          0                 3           3            60   41     1       0.6155140353E-01      15   28    2        -0.2172959176E+04      0.2209486540E+04
          0                 4           2            15   28     2      -0.3259227223E-02      15   28    2        -0.1957399215E+03      0.1957546408E+03

    ------------------------------------------------
       NWT REQUIRED            4 OUTER ITERATIONS 
       AND A TOTAL OF         18 INNER ITERATIONS.
    ------------------------------------------------

 NO OUTPUT CONTROL FOR STRESS PERIOD   14   TIME STEP    6
 
 SOLVING FOR HEAD 
                                                   Max.-Head-Change                         Max.-Flux-Residual
  Residual-Control   Outer-Iter.   Inner-Iter.     Column Row Layer    Maximum-Head-Change  Column Row Layer    Maximum-Flux-Residual          L2-NORM 
          0                 1           7            81   46     1      -0.1651974178E+01      81   46    1        -0.5793010753E+05      0.4646309695E+06
          0                 2           6            15   28     2      -0.2358056325E+00      15   28    2        -0.6409634937E+04      0.4738505857E+05
          0                 3           3            15   28     2       0.2118073889E-01      15   28    2         0.6344165745E+03      0.8014190890E+03
          0                 4           1            15   28     2       0.2430901731E-04      15   28    2         0.6315004230E+00      0.1108676999E+01

    ------------------------------------------------
       NWT REQUIRED            4 OUTER ITERATIONS 
       AND A TOTAL OF         17 INNER ITERATIONS.
    ------------------------------------------------

 NO OUTPUT CONTROL FOR STRESS PERIOD   14   TIME STEP    7
 
 SOLVING FOR HEAD 
                                                   Max.-Head-Change                         Max.-Flux-Residual
  Residual-Control   Outer-Iter.   Inner-Iter.     Column Row Layer    Maximum-Head-Change  Column Row Layer    Maximum-Flux-Residual          L2-NORM 
          0                 1           7            81   46     1      -0.1473397155E+01      81   46    1        -0.5164680653E+05      0.4600987818E+06
          0                 2           6            31   36     1      -0.8747527795E+00      33   63    2         0.6158968501E+04      0.4661610705E+05
          0                 3           2            31   36     1       0.7504859643E-01      31   36    1         0.4194691981E+03      0.5205943527E+03
          0                 4           1            24    6     1      -0.5110058005E-03      24    6    1        -0.2276176816E+02      0.2288558528E+02

    ------------------------------------------------
       NWT REQUIRED            4 OUTER ITERATIONS 
       AND A TOTAL OF         16 INNER ITERATIONS.
    ------------------------------------------------

 NO OUTPUT CONTROL FOR STRESS PERIOD   14   TIME STEP    8
 
 SOLVING FOR HEAD 
                                                   Max.-Head-Change                         Max.-Flux-Residual
  Residual-Control   Outer-Iter.   Inner-Iter.     Column Row Layer    Maximum-Head-Change  Column Row Layer    Maximum-Flux-Residual          L2-NORM 
          0                 1           7            31   36     1      -0.2336319574E+01      81   46    1        -0.4606309372E+05      0.4565920230E+06
          0                 2           6            24    6     1      -0.2628345570E+00      81   46    1         0.4603496299E+04      0.4575803665E+05
          0                 3           2            24    6     1       0.2332490670E-01      30   38    2         0.3154670909E+03      0.4512520057E+03
          0                 4           1            24    6     1       0.4878178209E-04      24    6    1         0.6205468997E+00      0.1366826485E+01

    ------------------------------------------------
       NWT REQUIRED            4 OUTER ITERATIONS 
       AND A TOTAL OF         16 INNER ITERATIONS.
    ------------------------------------------------

 NO OUTPUT CONTROL FOR STRESS PERIOD   14   TIME STEP    9
 
 SOLVING FOR HEAD 
                                                   Max.-Head-Change                         Max.-Flux-Residual
  Residual-Control   Outer-Iter.   Inner-Iter.     Column Row Layer    Maximum-Head-Change  Column Row Layer    Maximum-Flux-Residual          L2-NORM 
          0                 1           7            81   46     1      -0.1173473233E+01      81   46    1        -0.4109937689E+05      0.4538306584E+06
          0                 2           6            33   63     1      -0.3024182761E+00      30   38    2         0.6604509524E+04      0.4637160339E+05
          0                 3           2            33   63     1       0.2682025755E-01      30   38    1        -0.5780048181E+03      0.6893544882E+03
          0                 4           2            30   38     1      -0.1067277147E-02      30   38    1        -0.5208296123E+02      0.5210593678E+02

    ------------------------------------------------
       NWT REQUIRED            4 OUTER ITERATIONS 
       AND A TOTAL OF         17 INNER ITERATIONS.
    ------------------------------------------------

 NO OUTPUT CONTROL FOR STRESS PERIOD   14   TIME STEP   10
 
 SOLVING FOR HEAD 
                                                   Max.-Head-Change                         Max.-Flux-Residual
  Residual-Control   Outer-Iter.   Inner-Iter.     Column Row Layer    Maximum-Head-Change  Column Row Layer    Maximum-Flux-Residual          L2-NORM 
          0                 1           7            81   46     1      -0.1047904039E+01      81   46    1        -0.3668551607E+05      0.4513417093E+06
          0                 2           6            30   38     1      -0.4437935252E+00      30   38    1        -0.7049728604E+04      0.4613497889E+05
          0                 3           2            30   38     1       0.3953383376E-01      30   38    1         0.6924957628E+03      0.9775752112E+03
          0                 4           1            30   38     1       0.6959088125E-04      30   38    1         0.1200830802E+01      0.2036730169E+01

    ------------------------------------------------
       NWT REQUIRED            4 OUTER ITERATIONS 
       AND A TOTAL OF         16 INNER ITERATIONS.
    ------------------------------------------------

 NO OUTPUT CONTROL FOR STRESS PERIOD   14   TIME STEP   11
 
 SOLVING FOR HEAD 
                                                   Max.-Head-Change                         Max.-Flux-Residual
  Residual-Control   Outer-Iter.   Inner-Iter.     Column Row Layer    Maximum-Head-Change  Column Row Layer    Maximum-Flux-Residual          L2-NORM 
          0                 1           7            81   46     1      -0.9361856583E+00      81   46    1        -0.3275955497E+05      0.4493976225E+06
          0                 2           6            52  113     2      -0.2813104041E+00      39   30    2         0.8531533036E+04      0.4590297288E+05
          0                 3           2            52  113     2       0.2409204992E-01      33   59    1         0.3680867791E+03      0.4075142877E+03
          0                 4           1            52  113     2       0.1123744407E-03      52  113    2         0.6403913200E+00      0.1268760126E+01

    ------------------------------------------------
       NWT REQUIRED            4 OUTER ITERATIONS 
       AND A TOTAL OF         16 INNER ITERATIONS.
    ------------------------------------------------

 OUTPUT CONTROL FOR STRESS PERIOD   14   TIME STEP   12
    SAVE BUDGET
 UBDSV1 SAVING "         STORAGE" ON UNIT  39 AT TIME STEP 12, STRESS PERIOD  14
 UBDSV2 SAVING "   CONSTANT HEAD" ON UNIT  39 AT TIME STEP 12, STRESS PERIOD  14
 UBDSV1 SAVING "FLOW RIGHT FACE " ON UNIT  39 AT TIME STEP 12, STRESS PERIOD  14
 UBDSV1 SAVING "FLOW FRONT FACE " ON UNIT  39 AT TIME STEP 12, STRESS PERIOD  14
 UBDSV1 SAVING "FLOW LOWER FACE " ON UNIT  39 AT TIME STEP 12, STRESS PERIOD  14
 UBDSV4 SAVING "           WELLS" ON UNIT  39 AT TIME STEP 12, STRESS PERIOD  14
 UBDSV3 SAVING "              ET" ON UNIT  39 AT TIME STEP 12, STRESS PERIOD  14
 UBDSV3 SAVING "        RECHARGE" ON UNIT  39 AT TIME STEP 12, STRESS PERIOD  14
1
  VOLUMETRIC BUDGET FOR ENTIRE MODEL AT END OF TIME STEP   12, STRESS PERIOD  14
  ------------------------------------------------------------------------------

     CUMULATIVE VOLUMES      L**3       RATES FOR THIS TIME STEP      L**3/T
     ------------------                 ------------------------

           IN:                                      IN:
           ---                                      ---
             STORAGE = 49318166528.0000               STORAGE =    22937056.0000
       CONSTANT HEAD =  6320454656.0000         CONSTANT HEAD =     1462008.1250
               WELLS =  6267930624.0000                 WELLS =     1225642.0000
                  ET =           0.0000                    ET =           0.0000
            RECHARGE = 61655310336.0000              RECHARGE =    11711238.0000

            TOTAL IN =123561861120.0000              TOTAL IN =    37335944.0000

          OUT:                                     OUT:
          ----                                     ----
             STORAGE =  4325879296.0000               STORAGE =       17271.3184
       CONSTANT HEAD = 17704013824.0000         CONSTANT HEAD =     3861019.5000
               WELLS = 95737036800.0000                 WELLS =    33069540.0000
                  ET =  5795065344.0000                    ET =      388108.3750
            RECHARGE =           0.0000              RECHARGE =           0.0000

           TOTAL OUT =123561992192.0000             TOTAL OUT =    37335940.0000

            IN - OUT =     -131072.0000              IN - OUT =           4.0000

 PERCENT DISCREPANCY =          -0.00     PERCENT DISCREPANCY =           0.00






         TIME SUMMARY AT END OF TIME STEP   12 IN STRESS PERIOD   14
                    SECONDS     MINUTES      HOURS       DAYS        YEARS
                    -----------------------------------------------------------
   TIME STEP LENGTH 2.62800E+06  43800.      730.00      30.417     8.32763E-02
 STRESS PERIOD TIME 3.15360E+07 5.25600E+05  8760.0      365.00     0.99932    
         TOTAL TIME 4.41850E+08 7.36416E+06 1.22736E+05  5114.0      14.001    
1
1
                            STRESS PERIOD NO.   15, LENGTH =   365.0000    
                            -----------------------------------------------

                              NUMBER OF TIME STEPS =    12

                               MULTIPLIER FOR DELT =     1.000

                            INITIAL TIME STEP SIZE =   30.41667    

   1626 WELLS

 REUSING SURF FROM LAST STRESS PERIOD

 REUSING EVTR FROM LAST STRESS PERIOD

 REUSING EXDP FROM LAST STRESS PERIOD



                           RECHARGE
 READING ON UNIT   16 WITH FORMAT: (15F5.0)            


     63 TIME-VARIANT SPECIFIED-HEAD CELLS
 
 SOLVING FOR HEAD 
                                                   Max.-Head-Change                         Max.-Flux-Residual
  Residual-Control   Outer-Iter.   Inner-Iter.     Column Row Layer    Maximum-Head-Change  Column Row Layer    Maximum-Flux-Residual          L2-NORM 
          0                 1           8            65    2     2       0.2190451877E+02      24   22    1         0.1165057926E+06      0.7731024994E+06
          0                 2           6            65    2     2      -0.7442223564E+00      24   22    1        -0.1207110570E+05      0.7831164559E+05
          0                 3           2            65    2     2      -0.4271988184E-01      61   83    2        -0.1092384922E+03      0.1762924289E+03
          0                 4           2            65    2     2      -0.2443982689E-02      65    2    2        -0.1084345194E+01      0.2656117740E+01

    ------------------------------------------------
       NWT REQUIRED            4 OUTER ITERATIONS 
       AND A TOTAL OF         18 INNER ITERATIONS.
    ------------------------------------------------

 NO OUTPUT CONTROL FOR STRESS PERIOD   15   TIME STEP    1
 
 SOLVING FOR HEAD 
                                                   Max.-Head-Change                         Max.-Flux-Residual
  Residual-Control   Outer-Iter.   Inner-Iter.     Column Row Layer    Maximum-Head-Change  Column Row Layer    Maximum-Flux-Residual          L2-NORM 
          0                 1           8            81   45     1       0.2693210264E+01      81   45    1         0.8347869291E+05      0.5548947804E+06
          0                 2           6            81   45     1      -0.2448141549E+00      81   45    1        -0.8357334538E+04      0.5662870756E+05
          0                 3           2            39   30     1       0.8457541734E-02      39   30    1         0.3139032905E+03      0.3693070236E+03

    ------------------------------------------------
       NWT REQUIRED            3 OUTER ITERATIONS 
       AND A TOTAL OF         16 INNER ITERATIONS.
    ------------------------------------------------

 NO OUTPUT CONTROL FOR STRESS PERIOD   15   TIME STEP    2
 
 SOLVING FOR HEAD 
                                                   Max.-Head-Change                         Max.-Flux-Residual
  Residual-Control   Outer-Iter.   Inner-Iter.     Column Row Layer    Maximum-Head-Change  Column Row Layer    Maximum-Flux-Residual          L2-NORM 
          0                 1           7            81   45     1       0.2355034907E+01      81   45    1         0.7295936091E+05      0.4815902262E+06
          0                 2           6            81   45     1      -0.2163357613E+00      17   43    3         0.7511594673E+04      0.4984493018E+05
          0                 3           2            75   94     1       0.7307874488E-02      86   51    1        -0.6405648975E+02      0.7641923544E+02

    ------------------------------------------------
       NWT REQUIRED            3 OUTER ITERATIONS 
       AND A TOTAL OF         15 INNER ITERATIONS.
    ------------------------------------------------

 NO OUTPUT CONTROL FOR STRESS PERIOD   15   TIME STEP    3
 
 SOLVING FOR HEAD 
                                                   Max.-Head-Change                         Max.-Flux-Residual
  Residual-Control   Outer-Iter.   Inner-Iter.     Column Row Layer    Maximum-Head-Change  Column Row Layer    Maximum-Flux-Residual          L2-NORM 
          0                 1           7            81   45     1       0.2056027004E+01      81   45    1         0.6373686205E+05      0.4448217675E+06
          0                 2           6            17   43     2      -0.2328292604E+00      28   41    2         0.6853399113E+04      0.4562636063E+05
          0                 3           2            17   43     2       0.2085326245E-01      23   29    1        -0.4957380299E+03      0.7077782597E+03
          0                 4           1            23   29     1      -0.8321055249E-03      23   29    1        -0.4464072470E+02      0.4467233151E+02

    ------------------------------------------------
       NWT REQUIRED            4 OUTER ITERATIONS 
       AND A TOTAL OF         16 INNER ITERATIONS.
    ------------------------------------------------

 NO OUTPUT CONTROL FOR STRESS PERIOD   15   TIME STEP    4
 
 SOLVING FOR HEAD 
                                                   Max.-Head-Change                         Max.-Flux-Residual
  Residual-Control   Outer-Iter.   Inner-Iter.     Column Row Layer    Maximum-Head-Change  Column Row Layer    Maximum-Flux-Residual          L2-NORM 
          0                 1           7            81   45     1       0.1797517620E+01      81   45    1         0.5569830114E+05      0.4216051423E+06
          0                 2           6            23   29     1      -0.5567134077E+00      23   29    1        -0.1159643716E+05      0.4405874686E+05
          0                 3           2            23   29     1       0.4990126275E-01      23   29    1         0.1143113245E+04      0.1428248005E+04
          0                 4           2            34   21     1      -0.1253260592E-02      34   21    1        -0.6665687224E+02      0.6670441200E+02

    ------------------------------------------------
       NWT REQUIRED            4 OUTER ITERATIONS 
       AND A TOTAL OF         17 INNER ITERATIONS.
    ------------------------------------------------

 NO OUTPUT CONTROL FOR STRESS PERIOD   15   TIME STEP    5
 
 SOLVING FOR HEAD 
                                                   Max.-Head-Change                         Max.-Flux-Residual
  Residual-Control   Outer-Iter.   Inner-Iter.     Column Row Layer    Maximum-Head-Change  Column Row Layer    Maximum-Flux-Residual          L2-NORM 
          0                 1           7            38   33     1      -0.2266032832E+01      81   45    1         0.4870172582E+05      0.4058625521E+06
          0                 2           6            34   21     1      -0.2680256904E+00      34   21    1        -0.5449769153E+04      0.4132915400E+05
          0                 3           2            34   21     1       0.2399161980E-01      34   21    1         0.5370417045E+03      0.7793443776E+03
          0                 4           1            34   21     1       0.4151040857E-04      34   21    1         0.8567553461E+00      0.1837441014E+01

    ------------------------------------------------
       NWT REQUIRED            4 OUTER ITERATIONS 
       AND A TOTAL OF         16 INNER ITERATIONS.
    ------------------------------------------------

 NO OUTPUT CONTROL FOR STRESS PERIOD   15   TIME STEP    6
 
 SOLVING FOR HEAD 
                                                   Max.-Head-Change                         Max.-Flux-Residual
  Residual-Control   Outer-Iter.   Inner-Iter.     Column Row Layer    Maximum-Head-Change  Column Row Layer    Maximum-Flux-Residual          L2-NORM 
          0                 1           7            81   46     1       0.1450454885E+01      81   46    1         0.4666396054E+05      0.3943345379E+06
          0                 2           6            81   46     1      -0.1319330824E+00      81   46    1        -0.4669626878E+04      0.3955887365E+05
          0                 3           2            23    3     1       0.1144982885E-01      23    3    1         0.1290428989E+03      0.1393149012E+03
          0                 4           1            23    3     1       0.2973780592E-04      23    3    1         0.3165520541E+00      0.5813435474E+00

    ------------------------------------------------
       NWT REQUIRED            4 OUTER ITERATIONS 
       AND A TOTAL OF         16 INNER ITERATIONS.
    ------------------------------------------------

 NO OUTPUT CONTROL FOR STRESS PERIOD   15   TIME STEP    7
 
 SOLVING FOR HEAD 
                                                   Max.-Head-Change                         Max.-Flux-Residual
  Residual-Control   Outer-Iter.   Inner-Iter.     Column Row Layer    Maximum-Head-Change  Column Row Layer    Maximum-Flux-Residual          L2-NORM 
          0                 1           7            81   46     1       0.1408306177E+01      81   46    1         0.4534291946E+05      0.3855441998E+06
          0                 2           6            65  108     1      -0.2401405810E+00      81   46    1        -0.4537462213E+04      0.3875428974E+05
          0                 3           2            65  108     1       0.2058612956E-01      78   48    1        -0.1206104948E+03      0.1679477886E+03
          0                 4           1            66    8     3       0.1573457492E-03      66    8    3         0.5223804049E+01      0.5276831748E+01

    ------------------------------------------------
       NWT REQUIRED            4 OUTER ITERATIONS 
       AND A TOTAL OF         16 INNER ITERATIONS.
    ------------------------------------------------

 NO OUTPUT CONTROL FOR STRESS PERIOD   15   TIME STEP    8
 
 SOLVING FOR HEAD 
                                                   Max.-Head-Change                         Max.-Flux-Residual
  Residual-Control   Outer-Iter.   Inner-Iter.     Column Row Layer    Maximum-Head-Change  Column Row Layer    Maximum-Flux-Residual          L2-NORM 
          0                 1           7            81   46     1       0.1366451865E+01      81   46    1         0.4402565596E+05      0.3785030826E+06
          0                 2           6            81   46     1      -0.1242928655E+00      81   46    1        -0.4405635440E+04      0.3794865445E+05
          0                 3           2            25   11     1       0.5612647036E-02      25   11    1         0.1138155632E+03      0.1728641244E+03

    ------------------------------------------------
       NWT REQUIRED            3 OUTER ITERATIONS 
       AND A TOTAL OF         15 INNER ITERATIONS.
    ------------------------------------------------

 NO OUTPUT CONTROL FOR STRESS PERIOD   15   TIME STEP    9
 
 SOLVING FOR HEAD 
                                                   Max.-Head-Change                         Max.-Flux-Residual
  Residual-Control   Outer-Iter.   Inner-Iter.     Column Row Layer    Maximum-Head-Change  Column Row Layer    Maximum-Flux-Residual          L2-NORM 
          0                 1           7            81   46     1       0.1325036523E+01      81   46    1         0.4271757513E+05      0.3726946955E+06
          0                 2           6            16   36     2      -0.6434974969E+00      16   36    2        -0.7030189837E+04      0.3825960122E+05
          0                 3           3            16   36     2       0.6012761400E-01      16   36    2         0.7335901263E+03      0.7852484879E+03
          0                 4           1            16   36     2       0.1170875473E-03      17   36    2        -0.2966933545E+01      0.3775380086E+01

    ------------------------------------------------
       NWT REQUIRED            4 OUTER ITERATIONS 
       AND A TOTAL OF         17 INNER ITERATIONS.
    ------------------------------------------------

 NO OUTPUT CONTROL FOR STRESS PERIOD   15   TIME STEP   10
 
 SOLVING FOR HEAD 
                                                   Max.-Head-Change                         Max.-Flux-Residual
  Residual-Control   Outer-Iter.   Inner-Iter.     Column Row Layer    Maximum-Head-Change  Column Row Layer    Maximum-Flux-Residual          L2-NORM 
          0                 1           7            81   46     1       0.1284185109E+01      81   46    1         0.4142324286E+05      0.3679739427E+06
          0                 2           6            81   46     1      -0.1172221617E+00      19   23    2         0.5850770635E+04      0.3730851319E+05
          0                 3           2            58   97     2      -0.6937868262E-01      58   97    2        -0.2637348290E+04      0.2640220764E+04
          0                 4           2            58   97     2      -0.6253976151E-02      58   97    2        -0.2376821479E+03      0.2376920107E+03

    ------------------------------------------------
       NWT REQUIRED            4 OUTER ITERATIONS 
       AND A TOTAL OF         17 INNER ITERATIONS.
    ------------------------------------------------

 NO OUTPUT CONTROL FOR STRESS PERIOD   15   TIME STEP   11
 
 SOLVING FOR HEAD 
                                                   Max.-Head-Change                         Max.-Flux-Residual
  Residual-Control   Outer-Iter.   Inner-Iter.     Column Row Layer    Maximum-Head-Change  Column Row Layer    Maximum-Flux-Residual          L2-NORM 
          0                 1           7            81   46     1       0.1243239886E+01      81   46    1         0.4013223093E+05      0.3640584869E+06
          0                 2           6            58   97     2      -0.8920567084E+00      33   19    2         0.7034859884E+04      0.3778451907E+05
          0                 3           3            58   97     2       0.7745449073E-01      58   97    2         0.5432828953E+03      0.6582233272E+03
          0                 4           1            58   97     2       0.3098639003E-03      58   97    2         0.2155919023E+01      0.2213571506E+01

    ------------------------------------------------
       NWT REQUIRED            4 OUTER ITERATIONS 
       AND A TOTAL OF         17 INNER ITERATIONS.
    ------------------------------------------------

 OUTPUT CONTROL FOR STRESS PERIOD   15   TIME STEP   12
    SAVE BUDGET
 UBDSV1 SAVING "         STORAGE" ON UNIT  39 AT TIME STEP 12, STRESS PERIOD  15
 UBDSV2 SAVING "   CONSTANT HEAD" ON UNIT  39 AT TIME STEP 12, STRESS PERIOD  15
 UBDSV1 SAVING "FLOW RIGHT FACE " ON UNIT  39 AT TIME STEP 12, STRESS PERIOD  15
 UBDSV1 SAVING "FLOW FRONT FACE " ON UNIT  39 AT TIME STEP 12, STRESS PERIOD  15
 UBDSV1 SAVING "FLOW LOWER FACE " ON UNIT  39 AT TIME STEP 12, STRESS PERIOD  15
 UBDSV4 SAVING "           WELLS" ON UNIT  39 AT TIME STEP 12, STRESS PERIOD  15
 UBDSV3 SAVING "              ET" ON UNIT  39 AT TIME STEP 12, STRESS PERIOD  15
 UBDSV3 SAVING "        RECHARGE" ON UNIT  39 AT TIME STEP 12, STRESS PERIOD  15
1
  VOLUMETRIC BUDGET FOR ENTIRE MODEL AT END OF TIME STEP   12, STRESS PERIOD  15
  ------------------------------------------------------------------------------

     CUMULATIVE VOLUMES      L**3       RATES FOR THIS TIME STEP      L**3/T
     ------------------                 ------------------------

           IN:                                      IN:
           ---                                      ---
             STORAGE = 55232102400.0000               STORAGE =    15432124.0000
       CONSTANT HEAD =  6836991488.0000         CONSTANT HEAD =     1401627.0000
               WELLS =  6715287552.0000                 WELLS =     1225642.0000
                  ET =           0.0000                    ET =           0.0000
            RECHARGE = 69926412288.0000              RECHARGE =    22660606.0000

            TOTAL IN =138710794240.0000              TOTAL IN =    40720000.0000

          OUT:                                     OUT:
          ----                                     ----
             STORAGE =  5674442240.0000               STORAGE =     2669726.7500
       CONSTANT HEAD = 19155959808.0000         CONSTANT HEAD =     4042061.7500
               WELLS =107805425664.0000                 WELLS =    33064138.0000
                  ET =  6075099648.0000                    ET =      944077.7500
            RECHARGE =           0.0000              RECHARGE =           0.0000

           TOTAL OUT =138710925312.0000             TOTAL OUT =    40720004.0000

            IN - OUT =     -131072.0000              IN - OUT =          -4.0000

 PERCENT DISCREPANCY =          -0.00     PERCENT DISCREPANCY =          -0.00






         TIME SUMMARY AT END OF TIME STEP   12 IN STRESS PERIOD   15
                    SECONDS     MINUTES      HOURS       DAYS        YEARS
                    -----------------------------------------------------------
   TIME STEP LENGTH 2.62800E+06  43800.      730.00      30.417     8.32763E-02
 STRESS PERIOD TIME 3.15360E+07 5.25600E+05  8760.0      365.00     0.99932    
         TOTAL TIME 4.73385E+08 7.88976E+06 1.31496E+05  5479.0      15.001    
1
1
                            STRESS PERIOD NO.   16, LENGTH =   365.0000    
                            -----------------------------------------------

                              NUMBER OF TIME STEPS =    12

                               MULTIPLIER FOR DELT =     1.000

                            INITIAL TIME STEP SIZE =   30.41667    

   1653 WELLS

 REUSING SURF FROM LAST STRESS PERIOD

 REUSING EVTR FROM LAST STRESS PERIOD

 REUSING EXDP FROM LAST STRESS PERIOD



                           RECHARGE
 READING ON UNIT   16 WITH FORMAT: (15F5.0)            


     63 TIME-VARIANT SPECIFIED-HEAD CELLS
 
 SOLVING FOR HEAD 
                                                   Max.-Head-Change                         Max.-Flux-Residual
  Residual-Control   Outer-Iter.   Inner-Iter.     Column Row Layer    Maximum-Head-Change  Column Row Layer    Maximum-Flux-Residual          L2-NORM 
          0                 1           8            65    2     2       0.7768169288E+01      24   22    1        -0.1353719451E+06      0.6094838347E+06
          0                 2           6            63   83     2       0.3438722356E+00      63   83    1         0.1777887072E+05      0.6684123582E+05
          0                 3           2            91   52     3       0.2031520408E-01      33   19    1         0.2871878547E+03      0.5110129099E+03
          0                 4           1            65    2     2      -0.8272397652E-03      18   34    2        -0.1851896815E+01      0.3073505921E+01

    ------------------------------------------------
       NWT REQUIRED            4 OUTER ITERATIONS 
       AND A TOTAL OF         17 INNER ITERATIONS.
    ------------------------------------------------

 NO OUTPUT CONTROL FOR STRESS PERIOD   16   TIME STEP    1
 
 SOLVING FOR HEAD 
                                                   Max.-Head-Change                         Max.-Flux-Residual
  Residual-Control   Outer-Iter.   Inner-Iter.     Column Row Layer    Maximum-Head-Change  Column Row Layer    Maximum-Flux-Residual          L2-NORM 
          0                 1           7            81   45     1      -0.1225583749E+01      24   22    1        -0.5375710701E+05      0.4396985880E+06
          0                 2           6            59   89     2      -0.2414980956E+00      24   22    1         0.5248481770E+04      0.4442704623E+05
          0                 3           2            33   61     1      -0.2131389363E-01      33   61    1        -0.9426921013E+03      0.1030545182E+04
          0                 4           2            33   61     1      -0.1919480491E-02      33   61    1        -0.8488575821E+02      0.8489868597E+02

    ------------------------------------------------
       NWT REQUIRED            4 OUTER ITERATIONS 
       AND A TOTAL OF         17 INNER ITERATIONS.
    ------------------------------------------------

 NO OUTPUT CONTROL FOR STRESS PERIOD   16   TIME STEP    2
 
 SOLVING FOR HEAD 
                                                   Max.-Head-Change                         Max.-Flux-Residual
  Residual-Control   Outer-Iter.   Inner-Iter.     Column Row Layer    Maximum-Head-Change  Column Row Layer    Maximum-Flux-Residual          L2-NORM 
          0                 1           7            81   45     1      -0.1066347332E+01      81   45    1        -0.3320836769E+05      0.4074994306E+06
          0                 2           6            33   61     1      -0.4105561389E+00      20   48    3         0.9953067646E+04      0.4321031074E+05
          0                 3           3            20   48     2      -0.9469391557E-01      20   48    2        -0.4335129063E+04      0.4376430610E+04
          0                 4           2            20   48     2      -0.8534125254E-02      20   48    2        -0.3906405147E+03      0.3906590942E+03

    ------------------------------------------------
       NWT REQUIRED            4 OUTER ITERATIONS 
       AND A TOTAL OF         18 INNER ITERATIONS.
    ------------------------------------------------

 NO OUTPUT CONTROL FOR STRESS PERIOD   16   TIME STEP    3
 
 SOLVING FOR HEAD 
                                                   Max.-Head-Change                         Max.-Flux-Residual
  Residual-Control   Outer-Iter.   Inner-Iter.     Column Row Layer    Maximum-Head-Change  Column Row Layer    Maximum-Flux-Residual          L2-NORM 
          0                 1           7            38   20     2      -0.9454960873E+00      81   45    1        -0.2889323520E+05      0.3927436840E+06
          0                 2           6            20   48     2      -0.3780433339E+00      27   41    2         0.7612075460E+04      0.4160056085E+05
          0                 3           2            20   48     2       0.3447827836E-01      20   48    2         0.7152982103E+03      0.7396699495E+03
          0                 4           1            20   48     2       0.5882568313E-04      21   48    2        -0.1111777075E+01      0.2083545456E+01

    ------------------------------------------------
       NWT REQUIRED            4 OUTER ITERATIONS 
       AND A TOTAL OF         16 INNER ITERATIONS.
    ------------------------------------------------

 NO OUTPUT CONTROL FOR STRESS PERIOD   16   TIME STEP    4
 
 SOLVING FOR HEAD 
                                                   Max.-Head-Change                         Max.-Flux-Residual
  Residual-Control   Outer-Iter.   Inner-Iter.     Column Row Layer    Maximum-Head-Change  Column Row Layer    Maximum-Flux-Residual          L2-NORM 
          0                 1           7            18   43     2      -0.1351125589E+01      12   10    1        -0.2725502286E+05      0.3834598827E+06
          0                 2           6            18   43     2       0.1183630706E+00      12   10    1         0.2658780532E+04      0.3835907603E+05
          0                 3           1            73   15     1      -0.7160184524E-03      18   43    2         0.2255952302E+01      0.1871311959E+02

    ------------------------------------------------
       NWT REQUIRED            3 OUTER ITERATIONS 
       AND A TOTAL OF         14 INNER ITERATIONS.
    ------------------------------------------------

 NO OUTPUT CONTROL FOR STRESS PERIOD   16   TIME STEP    5
 
 SOLVING FOR HEAD 
                                                   Max.-Head-Change                         Max.-Flux-Residual
  Residual-Control   Outer-Iter.   Inner-Iter.     Column Row Layer    Maximum-Head-Change  Column Row Layer    Maximum-Flux-Residual          L2-NORM 
          0                 1           7            73   15     3       0.7270900524E+00      12   10    1        -0.2732664057E+05      0.3770155784E+06
          0                 2           6            56  104     2      -0.1560171003E+00      20   49    3         0.3844673721E+04      0.3789590885E+05
          0                 3           2            56  104     2       0.1338198049E-01      56  104    2         0.7649624583E+02      0.8324118405E+02
          0                 4           1            56  104     2       0.7007194517E-04      56  104    2         0.4198055621E+00      0.7358795506E+00

    ------------------------------------------------
       NWT REQUIRED            4 OUTER ITERATIONS 
       AND A TOTAL OF         16 INNER ITERATIONS.
    ------------------------------------------------

 NO OUTPUT CONTROL FOR STRESS PERIOD   16   TIME STEP    6
 
 SOLVING FOR HEAD 
                                                   Max.-Head-Change                         Max.-Flux-Residual
  Residual-Control   Outer-Iter.   Inner-Iter.     Column Row Layer    Maximum-Head-Change  Column Row Layer    Maximum-Flux-Residual          L2-NORM 
          0                 1           7            73   15     3       0.7182280879E+00      12   11    1        -0.2740912640E+05      0.3717267419E+06
          0                 2           6            16   32     2      -0.2730742010E+00      49   34    1        -0.5687522317E+04      0.3810749187E+05
          0                 3           2            16   32     2       0.2431958482E-01      16   32    2         0.4323063418E+03      0.5524485415E+03
          0                 4           1            12    5     1      -0.1417019585E-03      12    5    1        -0.8401069060E+01      0.8614637010E+01

    ------------------------------------------------
       NWT REQUIRED            4 OUTER ITERATIONS 
       AND A TOTAL OF         16 INNER ITERATIONS.
    ------------------------------------------------

 NO OUTPUT CONTROL FOR STRESS PERIOD   16   TIME STEP    7
 
 SOLVING FOR HEAD 
                                                   Max.-Head-Change                         Max.-Flux-Residual
  Residual-Control   Outer-Iter.   Inner-Iter.     Column Row Layer    Maximum-Head-Change  Column Row Layer    Maximum-Flux-Residual          L2-NORM 
          0                 1           7            16   32     2      -0.8920796071E+00      12   11    1        -0.2762130569E+05      0.3673409853E+06
          0                 2           6            12    5     1       0.1100761900E+00      12    5    1         0.4600786413E+04      0.3763536476E+05
          0                 3           2            12    5     1      -0.1403301365E-01      12    5    1        -0.8281960408E+03      0.9137711140E+03
          0                 4           1            12    5     1       0.3946964099E-03      12    5    1         0.2558117348E+02      0.2560226473E+02

    ------------------------------------------------
       NWT REQUIRED            4 OUTER ITERATIONS 
       AND A TOTAL OF         16 INNER ITERATIONS.
    ------------------------------------------------

 NO OUTPUT CONTROL FOR STRESS PERIOD   16   TIME STEP    8
 
 SOLVING FOR HEAD 
                                                   Max.-Head-Change                         Max.-Flux-Residual
  Residual-Control   Outer-Iter.   Inner-Iter.     Column Row Layer    Maximum-Head-Change  Column Row Layer    Maximum-Flux-Residual          L2-NORM 
          0                 1           7            34   15     2      -0.4363703189E+01      12   11    1        -0.2777417990E+05      0.3637586326E+06
          0                 2           6            30   36     1      -0.1921764731E+01      30   36    1        -0.1095981699E+05      0.3950028203E+05
          0                 3           2            30   36     1       0.1664191421E+00      12    5    1        -0.1480436027E+04      0.2003294533E+04
          0                 4           2            12    5     1       0.1908245545E-02      12    5    1         0.1234456923E+03      0.1458558014E+03

    ------------------------------------------------
       NWT REQUIRED            4 OUTER ITERATIONS 
       AND A TOTAL OF         17 INNER ITERATIONS.
    ------------------------------------------------

 NO OUTPUT CONTROL FOR STRESS PERIOD   16   TIME STEP    9

 INTERPOLATION FOR HEAD OBS# 6244, ID 1164-16-300  CHANGED BECAUSE AT LEAST ONE
 NEIGHBORING CELL REQUIRED FOR INTERPOLATION IS DRY OR INACTIVE (OBS2BAS7SE)
 
 SOLVING FOR HEAD 
                                                   Max.-Head-Change                         Max.-Flux-Residual
  Residual-Control   Outer-Iter.   Inner-Iter.     Column Row Layer    Maximum-Head-Change  Column Row Layer    Maximum-Flux-Residual          L2-NORM 
          0                 1           7            30   36     1      -0.1124675597E+01      12   11    1        -0.2788797419E+05      0.3605219494E+06
          0                 2           6            38   32     1      -0.1079414614E+01      12    5    1         0.7100840228E+04      0.3814852442E+05
          0                 3           2            38   32     1       0.9098982072E-01      31   35    1        -0.2348230460E+04      0.3290772494E+04
          0                 4           2            31   35     1      -0.5416153246E-02      12    5    1         0.2527711778E+03      0.3301732153E+03

    ------------------------------------------------
       NWT REQUIRED            4 OUTER ITERATIONS 
       AND A TOTAL OF         17 INNER ITERATIONS.
    ------------------------------------------------

 NO OUTPUT CONTROL FOR STRESS PERIOD   16   TIME STEP   10

 INTERPOLATION FOR HEAD OBS# 3498, ID 1501-16-309  CHANGED BECAUSE AT LEAST ONE
 NEIGHBORING CELL REQUIRED FOR INTERPOLATION IS DRY OR INACTIVE (OBS2BAS7SE)
 
 SOLVING FOR HEAD 
                                                   Max.-Head-Change                         Max.-Flux-Residual
  Residual-Control   Outer-Iter.   Inner-Iter.     Column Row Layer    Maximum-Head-Change  Column Row Layer    Maximum-Flux-Residual          L2-NORM 
          0                 1           7            30   37     1      -0.9120194596E+00      12   11    1        -0.2797578911E+05      0.3577892805E+06
          0                 2           6            31   35     1      -0.1606395507E+01      31   35    1        -0.1182751869E+05      0.3916496907E+05
          0                 3           3            31   35     1       0.1403341794E+00      12    5    1        -0.2473750325E+04      0.2809294952E+04
          0                 4           2            12    5     1       0.6006756656E-02      12    5    1         0.3878208607E+03      0.3878436188E+03

    ------------------------------------------------
       NWT REQUIRED            4 OUTER ITERATIONS 
       AND A TOTAL OF         18 INNER ITERATIONS.
    ------------------------------------------------

 NO OUTPUT CONTROL FOR STRESS PERIOD   16   TIME STEP   11

 INTERPOLATION FOR HEAD OBS# 1564, ID 2931-16-361  CHANGED BECAUSE AT LEAST ONE
 NEIGHBORING CELL REQUIRED FOR INTERPOLATION IS DRY OR INACTIVE (OBS2BAS7SE)

 INTERPOLATION FOR HEAD OBS# 6239, ID 1921-16-362  CHANGED BECAUSE AT LEAST ONE
 NEIGHBORING CELL REQUIRED FOR INTERPOLATION IS DRY OR INACTIVE (OBS2BAS7SE)
 
 SOLVING FOR HEAD 
                                                   Max.-Head-Change                         Max.-Flux-Residual
  Residual-Control   Outer-Iter.   Inner-Iter.     Column Row Layer    Maximum-Head-Change  Column Row Layer    Maximum-Flux-Residual          L2-NORM 
          0                 1           7            33   34     1      -0.1372946491E+01      12   11    1        -0.2804110783E+05      0.3555886629E+06
          0                 2           6            12    5     1       0.1735469005E+00      12    5    1         0.8033568509E+04      0.3687704509E+05
          0                 3           2            12    5     1      -0.4809539072E-01      12    5    1        -0.2826131946E+04      0.2855900645E+04
          0                 4           2            12    5     1       0.7990634001E-02      12    5    1         0.5155968116E+03      0.5179851958E+03

    ------------------------------------------------
       NWT REQUIRED            4 OUTER ITERATIONS 
       AND A TOTAL OF         17 INNER ITERATIONS.
    ------------------------------------------------

 OUTPUT CONTROL FOR STRESS PERIOD   16   TIME STEP   12
    SAVE BUDGET
    SAVE HEAD FOR LAYERS:   1  2  3
 UBDSV1 SAVING "         STORAGE" ON UNIT  39 AT TIME STEP 12, STRESS PERIOD  16
 UBDSV2 SAVING "   CONSTANT HEAD" ON UNIT  39 AT TIME STEP 12, STRESS PERIOD  16
 UBDSV1 SAVING "FLOW RIGHT FACE " ON UNIT  39 AT TIME STEP 12, STRESS PERIOD  16
 UBDSV1 SAVING "FLOW FRONT FACE " ON UNIT  39 AT TIME STEP 12, STRESS PERIOD  16
 UBDSV1 SAVING "FLOW LOWER FACE " ON UNIT  39 AT TIME STEP 12, STRESS PERIOD  16
 UBDSV4 SAVING "           WELLS" ON UNIT  39 AT TIME STEP 12, STRESS PERIOD  16
 UBDSV3 SAVING "              ET" ON UNIT  39 AT TIME STEP 12, STRESS PERIOD  16
 UBDSV3 SAVING "        RECHARGE" ON UNIT  39 AT TIME STEP 12, STRESS PERIOD  16

 INTERPOLATION FOR HEAD OBS# 3405, ID 1428-17-11   CHANGED BECAUSE AT LEAST ONE
 NEIGHBORING CELL REQUIRED FOR INTERPOLATION IS DRY OR INACTIVE (OBS2BAS7SE)

 INTERPOLATION FOR HEAD OBS# 5431, ID 846-17-5     CHANGED BECAUSE AT LEAST ONE
 NEIGHBORING CELL REQUIRED FOR INTERPOLATION IS DRY OR INACTIVE (OBS2BAS7SE)

 HEAD WILL BE SAVED ON UNIT   31 AT END OF TIME STEP   12, STRESS PERIOD   16
1
  VOLUMETRIC BUDGET FOR ENTIRE MODEL AT END OF TIME STEP   12, STRESS PERIOD  16
  ------------------------------------------------------------------------------

     CUMULATIVE VOLUMES      L**3       RATES FOR THIS TIME STEP      L**3/T
     ------------------                 ------------------------

           IN:                                      IN:
           ---                                      ---
             STORAGE = 60606455808.0000               STORAGE =    14282161.0000
       CONSTANT HEAD =  7337674752.0000         CONSTANT HEAD =     1375303.1250
               WELLS =  7162644480.0000                 WELLS =     1225642.0000
                  ET =           0.0000                    ET =           0.0000
            RECHARGE = 78903631872.0000              RECHARGE =    24594996.0000

            TOTAL IN =154010402816.0000              TOTAL IN =    41478104.0000

          OUT:                                     OUT:
          ----                                     ----
             STORAGE =  7066701312.0000               STORAGE =     3380583.0000
       CONSTANT HEAD = 20632979456.0000         CONSTANT HEAD =     4098475.5000
               WELLS =119940308992.0000                 WELLS =    33230536.0000
                  ET =  6370497536.0000                    ET =      768513.3750
            RECHARGE =           0.0000              RECHARGE =           0.0000

           TOTAL OUT =154010484736.0000             TOTAL OUT =    41478108.0000

            IN - OUT =      -81920.0000              IN - OUT =          -4.0000

 PERCENT DISCREPANCY =          -0.00     PERCENT DISCREPANCY =          -0.00






         TIME SUMMARY AT END OF TIME STEP   12 IN STRESS PERIOD   16
                    SECONDS     MINUTES      HOURS       DAYS        YEARS
                    -----------------------------------------------------------
   TIME STEP LENGTH 2.62800E+06  43800.      730.00      30.417     8.32763E-02
 STRESS PERIOD TIME 3.15360E+07 5.25600E+05  8760.0      365.00     0.99932    
         TOTAL TIME 5.04921E+08 8.41536E+06 1.40256E+05  5844.0      16.000    
1
1
                            STRESS PERIOD NO.   17, LENGTH =   366.0000    
                            -----------------------------------------------

                              NUMBER OF TIME STEPS =    12

                               MULTIPLIER FOR DELT =     1.000

                            INITIAL TIME STEP SIZE =   30.50000    

   1598 WELLS

 REUSING SURF FROM LAST STRESS PERIOD

 REUSING EVTR FROM LAST STRESS PERIOD

 REUSING EXDP FROM LAST STRESS PERIOD



                           RECHARGE
 READING ON UNIT   16 WITH FORMAT: (15F5.0)            


     63 TIME-VARIANT SPECIFIED-HEAD CELLS
 
 SOLVING FOR HEAD 
                                                   Max.-Head-Change                         Max.-Flux-Residual
  Residual-Control   Outer-Iter.   Inner-Iter.     Column Row Layer    Maximum-Head-Change  Column Row Layer    Maximum-Flux-Residual          L2-NORM 
          0                 1           7            65    2     2      -0.2949781967E+02      18   17    2        -0.3451750019E+06      0.1345195449E+07
          0                 2           6            69   63     3       0.1118848902E+01      18   17    2         0.2966547920E+05      0.1302223206E+06
          0                 3           2            17   36     2       0.5874951235E-01      17   36    2         0.7091940554E+03      0.1219337204E+04
          0                 4           2            65    2     2       0.3174309752E-02      64  111    2        -0.3379016437E+03      0.3457424873E+03

    ------------------------------------------------
       NWT REQUIRED            4 OUTER ITERATIONS 
       AND A TOTAL OF         17 INNER ITERATIONS.
    ------------------------------------------------

 NO OUTPUT CONTROL FOR STRESS PERIOD   17   TIME STEP    1

 INTERPOLATION FOR HEAD OBS# 3662, ID 1891-17-37   CHANGED BECAUSE AT LEAST ONE
 NEIGHBORING CELL REQUIRED FOR INTERPOLATION IS DRY OR INACTIVE (OBS2BAS7SE)

 INTERPOLATION FOR HEAD OBS# 3711, ID 1471-17-33   CHANGED BECAUSE AT LEAST ONE
 NEIGHBORING CELL REQUIRED FOR INTERPOLATION IS DRY OR INACTIVE (OBS2BAS7SE)

 INTERPOLATION FOR HEAD OBS# 3755, ID 1427-17-39   CHANGED BECAUSE AT LEAST ONE
 NEIGHBORING CELL REQUIRED FOR INTERPOLATION IS DRY OR INACTIVE (OBS2BAS7SE)

 INTERPOLATION FOR HEAD OBS# 3779, ID 1349-17-41   CHANGED BECAUSE AT LEAST ONE
 NEIGHBORING CELL REQUIRED FOR INTERPOLATION IS DRY OR INACTIVE (OBS2BAS7SE)

 INTERPOLATION FOR HEAD OBS# 5692, ID 1168-17-47   CHANGED BECAUSE AT LEAST ONE
 NEIGHBORING CELL REQUIRED FOR INTERPOLATION IS DRY OR INACTIVE (OBS2BAS7SE)
 
 SOLVING FOR HEAD 
                                                   Max.-Head-Change                         Max.-Flux-Residual
  Residual-Control   Outer-Iter.   Inner-Iter.     Column Row Layer    Maximum-Head-Change  Column Row Layer    Maximum-Flux-Residual          L2-NORM 
          0                 1           8            69   63     3      -0.3668046595E+01      34   59    2        -0.1321239244E+06      0.8266146907E+06
          0                 2           6            69   63     3       0.3350365479E+00      34   59    2         0.1272851976E+05      0.8202426595E+05
          0                 3           2            64  111     2       0.1909008633E-02      64  111    2         0.7012386901E+02      0.1352121483E+03

    ------------------------------------------------
       NWT REQUIRED            3 OUTER ITERATIONS 
       AND A TOTAL OF         16 INNER ITERATIONS.
    ------------------------------------------------

 NO OUTPUT CONTROL FOR STRESS PERIOD   17   TIME STEP    2

 INTERPOLATION FOR HEAD OBS# 6998, ID 683-17-78    CHANGED BECAUSE AT LEAST ONE
 NEIGHBORING CELL REQUIRED FOR INTERPOLATION IS DRY OR INACTIVE (OBS2BAS7SE)
 
 SOLVING FOR HEAD 
                                                   Max.-Head-Change                         Max.-Flux-Residual
  Residual-Control   Outer-Iter.   Inner-Iter.     Column Row Layer    Maximum-Head-Change  Column Row Layer    Maximum-Flux-Residual          L2-NORM 
          0                 1           8            34   59     2      -0.2351463810E+01      34   59    2        -0.8544300105E+05      0.7033345141E+06
          0                 2           6            34   59     2       0.2131598345E+00      34   59    2         0.8621092231E+04      0.7005883448E+05
          0                 3           1            31   37     1       0.5639187723E-03      34   59    1         0.5493351527E+01      0.2454307577E+02

    ------------------------------------------------
       NWT REQUIRED            3 OUTER ITERATIONS 
       AND A TOTAL OF         15 INNER ITERATIONS.
    ------------------------------------------------

 NO OUTPUT CONTROL FOR STRESS PERIOD   17   TIME STEP    3
 
 SOLVING FOR HEAD 
                                                   Max.-Head-Change                         Max.-Flux-Residual
  Residual-Control   Outer-Iter.   Inner-Iter.     Column Row Layer    Maximum-Head-Change  Column Row Layer    Maximum-Flux-Residual          L2-NORM 
          0                 1           8            34   59     2      -0.1721798038E+01      34   59    2        -0.5876244490E+05      0.6481985364E+06
          0                 2           6            70   18     1      -0.1669327380E+01      70   18    1        -0.7663531568E+04      0.6517544047E+05
          0                 3           2            70   18     1       0.1425479787E+00      70   18    1         0.7203416883E+03      0.7522889804E+03
          0                 4           1            70   18     1       0.7724058345E-03      70   18    1         0.3927357092E+01      0.4032915405E+01

    ------------------------------------------------
       NWT REQUIRED            4 OUTER ITERATIONS 
       AND A TOTAL OF         17 INNER ITERATIONS.
    ------------------------------------------------

 NO OUTPUT CONTROL FOR STRESS PERIOD   17   TIME STEP    4
 
 SOLVING FOR HEAD 
                                                   Max.-Head-Change                         Max.-Flux-Residual
  Residual-Control   Outer-Iter.   Inner-Iter.     Column Row Layer    Maximum-Head-Change  Column Row Layer    Maximum-Flux-Residual          L2-NORM 
          0                 1           8            81   46     1      -0.1353175619E+01      81   46    1        -0.4724004941E+05      0.6173722381E+06
          0                 2           6            81   46     1       0.1229555894E+00      81   46    1         0.4721168022E+04      0.6167800409E+05
          0                 3           2            34   14     2       0.5184518460E-02      23   27    2         0.1392957196E+03      0.1430972445E+03

    ------------------------------------------------
       NWT REQUIRED            3 OUTER ITERATIONS 
       AND A TOTAL OF         16 INNER ITERATIONS.
    ------------------------------------------------

 NO OUTPUT CONTROL FOR STRESS PERIOD   17   TIME STEP    5
 
 SOLVING FOR HEAD 
                                                   Max.-Head-Change                         Max.-Flux-Residual
  Residual-Control   Outer-Iter.   Inner-Iter.     Column Row Layer    Maximum-Head-Change  Column Row Layer    Maximum-Flux-Residual          L2-NORM 
          0                 1           8            34   14     2      -0.3767350285E+01      81   46    1        -0.4218823775E+05      0.5973230670E+06
          0                 2           6            34   14     2       0.2389264733E+00      23   27    2         0.8993230123E+04      0.6061255054E+05
          0                 3           2            34   14     2       0.6544698838E-02      58   74    2         0.9329290105E+01      0.2623449854E+02

    ------------------------------------------------
       NWT REQUIRED            3 OUTER ITERATIONS 
       AND A TOTAL OF         16 INNER ITERATIONS.
    ------------------------------------------------

 NO OUTPUT CONTROL FOR STRESS PERIOD   17   TIME STEP    6
 
 SOLVING FOR HEAD 
                                                   Max.-Head-Change                         Max.-Flux-Residual
  Residual-Control   Outer-Iter.   Inner-Iter.     Column Row Layer    Maximum-Head-Change  Column Row Layer    Maximum-Flux-Residual          L2-NORM 
          0                 1           8            81   46     1      -0.1080571428E+01      81   46    1        -0.3769158626E+05      0.5828137808E+06
          0                 2           6            18   42     2      -0.3227365874E+00      81   46    1         0.3767378842E+04      0.5839983771E+05
          0                 3           2            18   42     2       0.2889438224E-01      18   42    2         0.3450502964E+03      0.4114879805E+03
          0                 4           1            18   42     2       0.4957454600E-04      18   42    2         0.4540581107E+00      0.1779429998E+01

    ------------------------------------------------
       NWT REQUIRED            4 OUTER ITERATIONS 
       AND A TOTAL OF         17 INNER ITERATIONS.
    ------------------------------------------------

 NO OUTPUT CONTROL FOR STRESS PERIOD   17   TIME STEP    7
 
 SOLVING FOR HEAD 
                                                   Max.-Head-Change                         Max.-Flux-Residual
  Residual-Control   Outer-Iter.   Inner-Iter.     Column Row Layer    Maximum-Head-Change  Column Row Layer    Maximum-Flux-Residual          L2-NORM 
          0                 1           8            18   42     2      -0.1019768051E+01      81   46    1        -0.3368838523E+05      0.5719927861E+06
          0                 2           6            17   35     2      -0.5679194073E+00      17   35    2        -0.6334014588E+04      0.5754471237E+05
          0                 3           2            17   35     2       0.5071684022E-01      17   35    2         0.6227993480E+03      0.6881493310E+03
          0                 4           1            17   35     2       0.6843489183E-04      17   35    2         0.7482976280E+00      0.2110711945E+01

    ------------------------------------------------
       NWT REQUIRED            4 OUTER ITERATIONS 
       AND A TOTAL OF         17 INNER ITERATIONS.
    ------------------------------------------------

 NO OUTPUT CONTROL FOR STRESS PERIOD   17   TIME STEP    8
 
 SOLVING FOR HEAD 
                                                   Max.-Head-Change                         Max.-Flux-Residual
  Residual-Control   Outer-Iter.   Inner-Iter.     Column Row Layer    Maximum-Head-Change  Column Row Layer    Maximum-Flux-Residual          L2-NORM 
          0                 1           8            81   46     1      -0.8655049352E+00      81   46    1        -0.3013911617E+05      0.5634495708E+06
          0                 2           6            25   62     2       0.1875472168E+00      20   22    2         0.1440454754E+05      0.5884802688E+05
          0                 3           3            25   62     2      -0.1051791011E+00      25   62    2        -0.5081545774E+04      0.5357223560E+04
          0                 4           2            25   62     2      -0.9481505156E-02      25   62    2        -0.4578766794E+03      0.4579232336E+03

    ------------------------------------------------
       NWT REQUIRED            4 OUTER ITERATIONS 
       AND A TOTAL OF         19 INNER ITERATIONS.
    ------------------------------------------------

 NO OUTPUT CONTROL FOR STRESS PERIOD   17   TIME STEP    9
 
 SOLVING FOR HEAD 
                                                   Max.-Head-Change                         Max.-Flux-Residual
  Residual-Control   Outer-Iter.   Inner-Iter.     Column Row Layer    Maximum-Head-Change  Column Row Layer    Maximum-Flux-Residual          L2-NORM 
          0                 1           8            81   46     1      -0.7752224046E+00      12   11    1        -0.2822767577E+05      0.5560940339E+06
          0                 2           6            21   51     2      -0.2906374851E+00      13   13    2         0.2477059699E+05      0.6606161728E+05
          0                 3           3            16   34     2      -0.6197362634E-01      16   34    2        -0.2247684048E+04      0.2543888652E+04
          0                 4           2            16   34     2      -0.5583096341E-02      16   34    2        -0.2025165652E+03      0.2027147227E+03

    ------------------------------------------------
       NWT REQUIRED            4 OUTER ITERATIONS 
       AND A TOTAL OF         19 INNER ITERATIONS.
    ------------------------------------------------

 NO OUTPUT CONTROL FOR STRESS PERIOD   17   TIME STEP   10
 
 SOLVING FOR HEAD 
                                                   Max.-Head-Change                         Max.-Flux-Residual
  Residual-Control   Outer-Iter.   Inner-Iter.     Column Row Layer    Maximum-Head-Change  Column Row Layer    Maximum-Flux-Residual          L2-NORM 
          0                 1           7            20   22     1      -0.7866814673E+00      12   11    1        -0.2766485199E+05      0.5496688400E+06
          0                 2           6            16   34     2      -0.6974440079E+00      12    5    1        -0.1223969150E+05      0.5760704056E+05
          0                 3           3            16   34     2       0.6223464973E-01      12    5    1         0.1211015796E+04      0.1911831801E+04
          0                 4           1            16   34     2       0.1037883614E-03      16   34    2         0.1292788409E+01      0.2437743283E+01

    ------------------------------------------------
       NWT REQUIRED            4 OUTER ITERATIONS 
       AND A TOTAL OF         17 INNER ITERATIONS.
    ------------------------------------------------

 NO OUTPUT CONTROL FOR STRESS PERIOD   17   TIME STEP   11
 
 SOLVING FOR HEAD 
                                                   Max.-Head-Change                         Max.-Flux-Residual
  Residual-Control   Outer-Iter.   Inner-Iter.     Column Row Layer    Maximum-Head-Change  Column Row Layer    Maximum-Flux-Residual          L2-NORM 
          0                 1           7            30   35     1      -0.1035907202E+01      12   11    1        -0.2733916023E+05      0.5456423961E+06
          0                 2           6            19   21     2       0.1850032868E+00      19   21    2         0.1716499350E+05      0.5915983440E+05
          0                 3           2            19   21     1      -0.1276569268E-01      19   21    1        -0.9869653695E+03      0.9887213131E+03
          0                 4           2            19   21     1      -0.1150821893E-02      19   21    1        -0.8884018284E+02      0.8885152222E+02

    ------------------------------------------------
       NWT REQUIRED            4 OUTER ITERATIONS 
       AND A TOTAL OF         17 INNER ITERATIONS.
    ------------------------------------------------

 OUTPUT CONTROL FOR STRESS PERIOD   17   TIME STEP   12
    SAVE BUDGET
 UBDSV1 SAVING "         STORAGE" ON UNIT  39 AT TIME STEP 12, STRESS PERIOD  17
 UBDSV2 SAVING "   CONSTANT HEAD" ON UNIT  39 AT TIME STEP 12, STRESS PERIOD  17
 UBDSV1 SAVING "FLOW RIGHT FACE " ON UNIT  39 AT TIME STEP 12, STRESS PERIOD  17
 UBDSV1 SAVING "FLOW FRONT FACE " ON UNIT  39 AT TIME STEP 12, STRESS PERIOD  17
 UBDSV1 SAVING "FLOW LOWER FACE " ON UNIT  39 AT TIME STEP 12, STRESS PERIOD  17
 UBDSV4 SAVING "           WELLS" ON UNIT  39 AT TIME STEP 12, STRESS PERIOD  17
 UBDSV3 SAVING "              ET" ON UNIT  39 AT TIME STEP 12, STRESS PERIOD  17
 UBDSV3 SAVING "        RECHARGE" ON UNIT  39 AT TIME STEP 12, STRESS PERIOD  17
1
  VOLUMETRIC BUDGET FOR ENTIRE MODEL AT END OF TIME STEP   12, STRESS PERIOD  17
  ------------------------------------------------------------------------------

     CUMULATIVE VOLUMES      L**3       RATES FOR THIS TIME STEP      L**3/T
     ------------------                 ------------------------

           IN:                                      IN:
           ---                                      ---
             STORAGE = 70663307264.0000               STORAGE =    26918212.0000
       CONSTANT HEAD =  7849807360.0000         CONSTANT HEAD =     1406536.3750
               WELLS =  7611230208.0000                 WELLS =     1225642.0000
                  ET =           0.0000                    ET =           0.0000
            RECHARGE = 82411216896.0000              RECHARGE =     9583517.0000

            TOTAL IN =168535556096.0000              TOTAL IN =    39133908.0000

          OUT:                                     OUT:
          ----                                     ----
             STORAGE =  7242940416.0000               STORAGE =      100047.8984
       CONSTANT HEAD = 22083551232.0000         CONSTANT HEAD =     3913727.0000
               WELLS =132673527808.0000                 WELLS =    34790332.0000
                  ET =  6535564288.0000                    ET =      329809.4062
            RECHARGE =           0.0000              RECHARGE =           0.0000

           TOTAL OUT =168535588864.0000             TOTAL OUT =    39133916.0000

            IN - OUT =      -32768.0000              IN - OUT =          -8.0000

 PERCENT DISCREPANCY =          -0.00     PERCENT DISCREPANCY =          -0.00






         TIME SUMMARY AT END OF TIME STEP   12 IN STRESS PERIOD   17
                    SECONDS     MINUTES      HOURS       DAYS        YEARS
                    -----------------------------------------------------------
   TIME STEP LENGTH 2.63520E+06  43920.      732.00      30.500     8.35044E-02
 STRESS PERIOD TIME 3.16224E+07 5.27040E+05  8784.0      366.00      1.0021    
         TOTAL TIME 5.36544E+08 8.94240E+06 1.49040E+05  6210.0      17.002    
1
1
                            STRESS PERIOD NO.   18, LENGTH =   365.0000    
                            -----------------------------------------------

                              NUMBER OF TIME STEPS =    12

                               MULTIPLIER FOR DELT =     1.000

                            INITIAL TIME STEP SIZE =   30.41667    

   1726 WELLS

 REUSING SURF FROM LAST STRESS PERIOD

 REUSING EVTR FROM LAST STRESS PERIOD

 REUSING EXDP FROM LAST STRESS PERIOD



                           RECHARGE
 READING ON UNIT   16 WITH FORMAT: (15F5.0)            


     63 TIME-VARIANT SPECIFIED-HEAD CELLS
 
 SOLVING FOR HEAD 
                                                   Max.-Head-Change                         Max.-Flux-Residual
  Residual-Control   Outer-Iter.   Inner-Iter.     Column Row Layer    Maximum-Head-Change  Column Row Layer    Maximum-Flux-Residual          L2-NORM 
          0                 1           7            92   77     2       0.1533155213E+02      23   15    2        -0.1696870539E+06      0.8712455551E+06
          0                 2           6            91   67     1      -0.8433576530E+00      83   51    1        -0.1806047261E+05      0.9094907012E+05
          0                 3           2            19   21     1       0.4053300210E-01      19   21    1         0.1512369997E+04      0.1736910923E+04
          0                 4           1            88   67     1      -0.3874399403E-03      61  100    1        -0.1470099115E+02      0.1652113324E+02

    ------------------------------------------------
       NWT REQUIRED            4 OUTER ITERATIONS 
       AND A TOTAL OF         16 INNER ITERATIONS.
    ------------------------------------------------

 NO OUTPUT CONTROL FOR STRESS PERIOD   18   TIME STEP    1
 
 SOLVING FOR HEAD 
                                                   Max.-Head-Change                         Max.-Flux-Residual
  Residual-Control   Outer-Iter.   Inner-Iter.     Column Row Layer    Maximum-Head-Change  Column Row Layer    Maximum-Flux-Residual          L2-NORM 
          0                 1           7            81   45     1       0.3108191961E+01      76   48    1         0.1191603593E+06      0.6938181291E+06
          0                 2           6            37   19     2      -0.1216273647E+01      76   48    1        -0.1197090908E+05      0.7285391594E+05
          0                 3           2            37   19     2       0.1037890776E+00      29   39    1        -0.3287507708E+04      0.3400483081E+04
          0                 4           2            29   39     1      -0.5903135949E-02      29   39    1        -0.2965484044E+03      0.2967417587E+03

    ------------------------------------------------
       NWT REQUIRED            4 OUTER ITERATIONS 
       AND A TOTAL OF         17 INNER ITERATIONS.
    ------------------------------------------------

 NO OUTPUT CONTROL FOR STRESS PERIOD   18   TIME STEP    2
 
 SOLVING FOR HEAD 
                                                   Max.-Head-Change                         Max.-Flux-Residual
  Residual-Control   Outer-Iter.   Inner-Iter.     Column Row Layer    Maximum-Head-Change  Column Row Layer    Maximum-Flux-Residual          L2-NORM 
          0                 1           7            81   45     1       0.2719119251E+01      76   48    1         0.9374348426E+05      0.6342716419E+06
          0                 2           6            29   39     1      -0.4981773533E+00      68   47    1        -0.1619601871E+05      0.6675205941E+05
          0                 3           2            29   39     1       0.4442392494E-01      12    6    1        -0.9655397505E+03      0.1313669809E+04
          0                 4           2            12    6     1      -0.1054718628E-02      12    6    1        -0.8695200565E+02      0.8698427870E+02

    ------------------------------------------------
       NWT REQUIRED            4 OUTER ITERATIONS 
       AND A TOTAL OF         17 INNER ITERATIONS.
    ------------------------------------------------

 NO OUTPUT CONTROL FOR STRESS PERIOD   18   TIME STEP    3
 
 SOLVING FOR HEAD 
                                                   Max.-Head-Change                         Max.-Flux-Residual
  Residual-Control   Outer-Iter.   Inner-Iter.     Column Row Layer    Maximum-Head-Change  Column Row Layer    Maximum-Flux-Residual          L2-NORM 
          0                 1           7            81   45     1       0.2375648662E+01      70   47    1         0.7951507388E+05      0.5994581462E+06
          0                 2           6            19   42     2      -0.9855388009E+00      12    6    1        -0.1143395234E+05      0.6212308351E+05
          0                 3           2            19   42     2       0.8668515961E-01      12    6    1         0.1131236281E+04      0.1481594508E+04
          0                 4           1            19   42     2       0.2299603870E-03      19   42    2         0.1302036660E+01      0.3657917651E+01

    ------------------------------------------------
       NWT REQUIRED            4 OUTER ITERATIONS 
       AND A TOTAL OF         16 INNER ITERATIONS.
    ------------------------------------------------

 NO OUTPUT CONTROL FOR STRESS PERIOD   18   TIME STEP    4
 
 SOLVING FOR HEAD 
                                                   Max.-Head-Change                         Max.-Flux-Residual
  Residual-Control   Outer-Iter.   Inner-Iter.     Column Row Layer    Maximum-Head-Change  Column Row Layer    Maximum-Flux-Residual          L2-NORM 
          0                 1           7            81   45     1       0.2077845017E+01      70   47    1         0.6827888558E+05      0.5762636866E+06
          0                 2           6            33   35     2      -0.9237894354E+00      70   47    1        -0.6869514310E+04      0.5777909934E+05
          0                 3           2            33   35     2       0.6718619537E-01      19   46    2         0.3109310509E+03      0.3926750996E+03
          0                 4           2            33   35     2       0.1228700601E-02      33   35    2         0.1271323204E+01      0.2127523694E+01

    ------------------------------------------------
       NWT REQUIRED            4 OUTER ITERATIONS 
       AND A TOTAL OF         17 INNER ITERATIONS.
    ------------------------------------------------

 NO OUTPUT CONTROL FOR STRESS PERIOD   18   TIME STEP    5
 
 SOLVING FOR HEAD 
                                                   Max.-Head-Change                         Max.-Flux-Residual
  Residual-Control   Outer-Iter.   Inner-Iter.     Column Row Layer    Maximum-Head-Change  Column Row Layer    Maximum-Flux-Residual          L2-NORM 
          0                 1           7            33   35     2      -0.3594862502E+01      69   47    1         0.5884373300E+05      0.5597009872E+06
          0                 2           6            64  111     1      -0.3812549847E+00      35   61    2         0.7428575100E+04      0.5669967975E+05
          0                 3           2            64  111     1       0.3061129850E-01      64  111    1         0.8771954024E+02      0.1032490691E+03
          0                 4           1            64  111     1       0.3025332127E-03      64  111    1         0.9048243687E+00      0.1239113421E+01

    ------------------------------------------------
       NWT REQUIRED            4 OUTER ITERATIONS 
       AND A TOTAL OF         16 INNER ITERATIONS.
    ------------------------------------------------

 NO OUTPUT CONTROL FOR STRESS PERIOD   18   TIME STEP    6
 
 SOLVING FOR HEAD 
                                                   Max.-Head-Change                         Max.-Flux-Residual
  Residual-Control   Outer-Iter.   Inner-Iter.     Column Row Layer    Maximum-Head-Change  Column Row Layer    Maximum-Flux-Residual          L2-NORM 
          0                 1           7            81   46     1       0.1677990160E+01      81   46    1         0.5397569842E+05      0.5472845655E+06
          0                 2           6            32   19     2       0.1636574770E+00      32   19    2         0.8630639782E+04      0.5565648430E+05
          0                 3           2            17   41     3       0.1378974223E-01      17   41    3         0.5611168810E+03      0.5637788269E+03
          0                 4           1            20   39     3       0.8416386691E-04      16   42    3         0.1320444331E+01      0.3887809831E+01

    ------------------------------------------------
       NWT REQUIRED            4 OUTER ITERATIONS 
       AND A TOTAL OF         16 INNER ITERATIONS.
    ------------------------------------------------

 NO OUTPUT CONTROL FOR STRESS PERIOD   18   TIME STEP    7
 
 SOLVING FOR HEAD 
                                                   Max.-Head-Change                         Max.-Flux-Residual
  Residual-Control   Outer-Iter.   Inner-Iter.     Column Row Layer    Maximum-Head-Change  Column Row Layer    Maximum-Flux-Residual          L2-NORM 
          0                 1           7            81   46     1       0.1629407682E+01      81   46    1         0.5245523861E+05      0.5376668647E+06
          0                 2           6            17   34     2      -0.5103665736E+00      17   41    3         0.1209591814E+05      0.5625060256E+05
          0                 3           3            17   34     2       0.1442716892E+00      17   34    2         0.1656483713E+04      0.2267868047E+04
          0                 4           2            18   34     2      -0.1792044475E-02      18   34    2        -0.7523522022E+02      0.7725290466E+02

    ------------------------------------------------
       NWT REQUIRED            4 OUTER ITERATIONS 
       AND A TOTAL OF         18 INNER ITERATIONS.
    ------------------------------------------------

 NO OUTPUT CONTROL FOR STRESS PERIOD   18   TIME STEP    8
 
 SOLVING FOR HEAD 
                                                   Max.-Head-Change                         Max.-Flux-Residual
  Residual-Control   Outer-Iter.   Inner-Iter.     Column Row Layer    Maximum-Head-Change  Column Row Layer    Maximum-Flux-Residual          L2-NORM 
          0                 1           7            81   46     1       0.1581105705E+01      81   46    1         0.5093698466E+05      0.5299230072E+06
          0                 2           6            23   31     1      -0.3839509200E+00      19   20    2         0.1130317703E+05      0.5621092787E+05
          0                 3           3            21   49     2      -0.8142498050E-01      19   20    1        -0.6135614041E+04      0.7323546454E+04
          0                 4           2            21   49     2      -0.7342330146E-02      19   20    1        -0.5528721954E+03      0.6565255674E+03

    ------------------------------------------------
       NWT REQUIRED            4 OUTER ITERATIONS 
       AND A TOTAL OF         18 INNER ITERATIONS.
    ------------------------------------------------

 NO OUTPUT CONTROL FOR STRESS PERIOD   18   TIME STEP    9
 
 SOLVING FOR HEAD 
                                                   Max.-Head-Change                         Max.-Flux-Residual
  Residual-Control   Outer-Iter.   Inner-Iter.     Column Row Layer    Maximum-Head-Change  Column Row Layer    Maximum-Flux-Residual          L2-NORM 
          0                 1           7            81   46     1       0.1533261122E+01      81   46    1         0.4942749702E+05      0.5234078985E+06
          0                 2           6            13    7     1      -0.3156427216E+00      13    7    1        -0.1459115602E+05      0.5755287843E+05
          0                 3           3            59   96     1      -0.7764542556E-01      59   96    1        -0.4131387771E+04      0.4754980850E+04
          0                 4           2            59   96     1      -0.6996616099E-02      59   96    1        -0.3721952638E+03      0.3861698692E+03

    ------------------------------------------------
       NWT REQUIRED            4 OUTER ITERATIONS 
       AND A TOTAL OF         18 INNER ITERATIONS.
    ------------------------------------------------

 NO OUTPUT CONTROL FOR STRESS PERIOD   18   TIME STEP   10
 
 SOLVING FOR HEAD 
                                                   Max.-Head-Change                         Max.-Flux-Residual
  Residual-Control   Outer-Iter.   Inner-Iter.     Column Row Layer    Maximum-Head-Change  Column Row Layer    Maximum-Flux-Residual          L2-NORM 
          0                 1           7            81   46     1       0.1486986227E+01      81   46    1         0.4793710195E+05      0.5184412677E+06
          0                 2           6            18   45     2      -0.4270118954E+00      18   45    2        -0.8086501970E+04      0.5326497454E+05
          0                 3           2            18   45     2       0.3461935526E-01      18   45    2         0.7986796327E+03      0.1228579031E+04
          0                 4           1            18   45     2       0.5758491146E-04      19   45    3        -0.2917049691E+01      0.5395088192E+01

    ------------------------------------------------
       NWT REQUIRED            4 OUTER ITERATIONS 
       AND A TOTAL OF         16 INNER ITERATIONS.
    ------------------------------------------------

 NO OUTPUT CONTROL FOR STRESS PERIOD   18   TIME STEP   11
 
 SOLVING FOR HEAD 
                                                   Max.-Head-Change                         Max.-Flux-Residual
  Residual-Control   Outer-Iter.   Inner-Iter.     Column Row Layer    Maximum-Head-Change  Column Row Layer    Maximum-Flux-Residual          L2-NORM 
          0                 1           7            81   46     1       0.1439777798E+01      81   46    1         0.4645606675E+05      0.5146608996E+06
          0                 2           6            18   41     3       0.1412439203E+00      18   41    3         0.5372915137E+04      0.5191932765E+05
          0                 3           1            33   35     2       0.6321759854E-03      28   36    1         0.2486766279E+01      0.2416002226E+02

    ------------------------------------------------
       NWT REQUIRED            3 OUTER ITERATIONS 
       AND A TOTAL OF         14 INNER ITERATIONS.
    ------------------------------------------------

 OUTPUT CONTROL FOR STRESS PERIOD   18   TIME STEP   12
    SAVE BUDGET
 UBDSV1 SAVING "         STORAGE" ON UNIT  39 AT TIME STEP 12, STRESS PERIOD  18
 UBDSV2 SAVING "   CONSTANT HEAD" ON UNIT  39 AT TIME STEP 12, STRESS PERIOD  18
 UBDSV1 SAVING "FLOW RIGHT FACE " ON UNIT  39 AT TIME STEP 12, STRESS PERIOD  18
 UBDSV1 SAVING "FLOW FRONT FACE " ON UNIT  39 AT TIME STEP 12, STRESS PERIOD  18
 UBDSV1 SAVING "FLOW LOWER FACE " ON UNIT  39 AT TIME STEP 12, STRESS PERIOD  18
 UBDSV4 SAVING "           WELLS" ON UNIT  39 AT TIME STEP 12, STRESS PERIOD  18
 UBDSV3 SAVING "              ET" ON UNIT  39 AT TIME STEP 12, STRESS PERIOD  18
 UBDSV3 SAVING "        RECHARGE" ON UNIT  39 AT TIME STEP 12, STRESS PERIOD  18
1
  VOLUMETRIC BUDGET FOR ENTIRE MODEL AT END OF TIME STEP   12, STRESS PERIOD  18
  ------------------------------------------------------------------------------

     CUMULATIVE VOLUMES      L**3       RATES FOR THIS TIME STEP      L**3/T
     ------------------                 ------------------------

           IN:                                      IN:
           ---                                      ---
             STORAGE = 79901171712.0000               STORAGE =    24973582.0000
       CONSTANT HEAD =  8376400896.0000         CONSTANT HEAD =     1452913.7500
               WELLS =  8058587136.0000                 WELLS =     1225642.0000
                  ET =           0.0000                    ET =           0.0000
            RECHARGE = 87877017600.0000              RECHARGE =    14974722.0000

            TOTAL IN =184213176320.0000              TOTAL IN =    42626860.0000

          OUT:                                     OUT:
          ----                                     ----
             STORAGE =  7987575296.0000               STORAGE =     1452132.6250
       CONSTANT HEAD = 23502460928.0000         CONSTANT HEAD =     3859701.2500
               WELLS =145853579264.0000                 WELLS =    36109832.0000
                  ET =  6869514240.0000                    ET =     1205136.0000
            RECHARGE =           0.0000              RECHARGE =           0.0000

           TOTAL OUT =184213127168.0000             TOTAL OUT =    42626800.0000

            IN - OUT =       49152.0000              IN - OUT =          60.0000

 PERCENT DISCREPANCY =           0.00     PERCENT DISCREPANCY =           0.00






         TIME SUMMARY AT END OF TIME STEP   12 IN STRESS PERIOD   18
                    SECONDS     MINUTES      HOURS       DAYS        YEARS
                    -----------------------------------------------------------
   TIME STEP LENGTH 2.62800E+06  43800.      730.00      30.417     8.32763E-02
 STRESS PERIOD TIME 3.15360E+07 5.25600E+05  8760.0      365.00     0.99932    
         TOTAL TIME 5.68080E+08 9.46799E+06 1.57800E+05  6575.0      18.001    
1
1
                            STRESS PERIOD NO.   19, LENGTH =   365.0000    
                            -----------------------------------------------

                              NUMBER OF TIME STEPS =    12

                               MULTIPLIER FOR DELT =     1.000

                            INITIAL TIME STEP SIZE =   30.41667    

   1708 WELLS

 REUSING SURF FROM LAST STRESS PERIOD

 REUSING EVTR FROM LAST STRESS PERIOD

 REUSING EXDP FROM LAST STRESS PERIOD



                           RECHARGE
 READING ON UNIT   16 WITH FORMAT: (15F5.0)            


     63 TIME-VARIANT SPECIFIED-HEAD CELLS
 
 SOLVING FOR HEAD 
                                                   Max.-Head-Change                         Max.-Flux-Residual
  Residual-Control   Outer-Iter.   Inner-Iter.     Column Row Layer    Maximum-Head-Change  Column Row Layer    Maximum-Flux-Residual          L2-NORM 
          0                 1           8            72   48     3       0.2511883252E+02      62   95    1        -0.2565599693E+06      0.1018805829E+07
          0                 2           6            72   48     3      -0.2233228623E+01      41   29    1        -0.4753392500E+05      0.1106020169E+06
          0                 3           3            29   36     1      -0.7018424611E-01      29   36    1        -0.3892151223E+04      0.3898717886E+04
          0                 4           2            29   36     1      -0.6327933068E-02      29   36    1        -0.3508412536E+03      0.3510294380E+03

    ------------------------------------------------
       NWT REQUIRED            4 OUTER ITERATIONS 
       AND A TOTAL OF         19 INNER ITERATIONS.
    ------------------------------------------------

 NO OUTPUT CONTROL FOR STRESS PERIOD   19   TIME STEP    1
 
 SOLVING FOR HEAD 
                                                   Max.-Head-Change                         Max.-Flux-Residual
  Residual-Control   Outer-Iter.   Inner-Iter.     Column Row Layer    Maximum-Head-Change  Column Row Layer    Maximum-Flux-Residual          L2-NORM 
          0                 1           8            72   48     3       0.8395331208E+01      59  105    1        -0.1471464957E+06      0.6512501316E+06
          0                 2           6            72   48     3      -0.7631341307E+00      59  105    1         0.1548215665E+05      0.6761247891E+05
          0                 3           3            29   36     1       0.4142969043E-01      29   36    1         0.1062455045E+04      0.1191625949E+04
          0                 4           1            83   58     1       0.2482361438E-03      29   36    1         0.1201610073E+01      0.2504309225E+01

    ------------------------------------------------
       NWT REQUIRED            4 OUTER ITERATIONS 
       AND A TOTAL OF         18 INNER ITERATIONS.
    ------------------------------------------------

 NO OUTPUT CONTROL FOR STRESS PERIOD   19   TIME STEP    2
 
 SOLVING FOR HEAD 
                                                   Max.-Head-Change                         Max.-Flux-Residual
  Residual-Control   Outer-Iter.   Inner-Iter.     Column Row Layer    Maximum-Head-Change  Column Row Layer    Maximum-Flux-Residual          L2-NORM 
          0                 1           7            72   48     3       0.3653943696E+01      62   95    1        -0.8241273692E+05      0.5493176029E+06
          0                 2           6            72   48     3      -0.3321600010E+00      13    6    2         0.9086725825E+04      0.5721886442E+05
          0                 3           2            29   35     1      -0.6500445414E-01      29   35    1        -0.2907934130E+04      0.3005497995E+04
          0                 4           2            29   35     1      -0.5878127633E-02      29   35    1        -0.2626819501E+03      0.2627263041E+03

    ------------------------------------------------
       NWT REQUIRED            4 OUTER ITERATIONS 
       AND A TOTAL OF         17 INNER ITERATIONS.
    ------------------------------------------------

 NO OUTPUT CONTROL FOR STRESS PERIOD   19   TIME STEP    3
 
 SOLVING FOR HEAD 
                                                   Max.-Head-Change                         Max.-Flux-Residual
  Residual-Control   Outer-Iter.   Inner-Iter.     Column Row Layer    Maximum-Head-Change  Column Row Layer    Maximum-Flux-Residual          L2-NORM 
          0                 1           7            72   47     3       0.2040988025E+01      62   95    1        -0.5653947605E+05      0.5118596159E+06
          0                 2           6            29   35     1      -0.1065666807E+01      29   35    1        -0.1323690688E+05      0.5521502668E+05
          0                 3           3            29   35     1       0.9464290690E-01      29   35    1         0.1294201547E+04      0.1901014257E+04
          0                 4           1            29   35     1       0.1822483406E-03      29   35    1         0.2299015705E+01      0.4163286883E+01

    ------------------------------------------------
       NWT REQUIRED            4 OUTER ITERATIONS 
       AND A TOTAL OF         17 INNER ITERATIONS.
    ------------------------------------------------

 NO OUTPUT CONTROL FOR STRESS PERIOD   19   TIME STEP    4
 
 SOLVING FOR HEAD 
                                                   Max.-Head-Change                         Max.-Flux-Residual
  Residual-Control   Outer-Iter.   Inner-Iter.     Column Row Layer    Maximum-Head-Change  Column Row Layer    Maximum-Flux-Residual          L2-NORM 
          0                 1           7            72   47     3       0.1414441704E+01      62   95    1        -0.4410075867E+05      0.4938439028E+06
          0                 2           6            77   46     2       0.3838267512E+00      12    4    2         0.7919740614E+04      0.5002511294E+05
          0                 3           2            77   46     2      -0.3489749037E-01      41   29    2         0.4420333496E+03      0.5220487944E+03
          0                 4           1            41   29     2       0.3214731594E-03      41   29    2         0.4011222455E+02      0.4017648218E+02

    ------------------------------------------------
       NWT REQUIRED            4 OUTER ITERATIONS 
       AND A TOTAL OF         16 INNER ITERATIONS.
    ------------------------------------------------

 NO OUTPUT CONTROL FOR STRESS PERIOD   19   TIME STEP    5
 
 SOLVING FOR HEAD 
                                                   Max.-Head-Change                         Max.-Flux-Residual
  Residual-Control   Outer-Iter.   Inner-Iter.     Column Row Layer    Maximum-Head-Change  Column Row Layer    Maximum-Flux-Residual          L2-NORM 
          0                 1           7            77   46     2       0.1307857327E+01      62   95    1        -0.3724521051E+05      0.4835493302E+06
          0                 2           6            32   34     1      -0.7000141637E+00      41   29    2         0.1053869914E+05      0.5071918001E+05
          0                 3           3            32   34     1       0.6024923877E-01      41   29    2        -0.1053854521E+04      0.1556478586E+04
          0                 4           1            32   34     1       0.2868562865E-03      32   34    1         0.1648281984E+01      0.2377536183E+01

    ------------------------------------------------
       NWT REQUIRED            4 OUTER ITERATIONS 
       AND A TOTAL OF         17 INNER ITERATIONS.
    ------------------------------------------------

 NO OUTPUT CONTROL FOR STRESS PERIOD   19   TIME STEP    6
 
 SOLVING FOR HEAD 
                                                   Max.-Head-Change                         Max.-Flux-Residual
  Residual-Control   Outer-Iter.   Inner-Iter.     Column Row Layer    Maximum-Head-Change  Column Row Layer    Maximum-Flux-Residual          L2-NORM 
          0                 1           7            32   34     1      -0.2410013181E+01      62   95    1        -0.3300077762E+05      0.4765573009E+06
          0                 2           6            59   93     1      -0.4112207403E+00      12    3    2         0.8171549773E+04      0.4960860956E+05
          0                 3           3            17   40     2      -0.6636081508E-01      17   40    2        -0.2431693171E+04      0.2487053157E+04
          0                 4           2            17   40     2      -0.5989416991E-02      17   40    2        -0.2194476495E+03      0.2196097675E+03

    ------------------------------------------------
       NWT REQUIRED            4 OUTER ITERATIONS 
       AND A TOTAL OF         18 INNER ITERATIONS.
    ------------------------------------------------

 NO OUTPUT CONTROL FOR STRESS PERIOD   19   TIME STEP    7
 
 SOLVING FOR HEAD 
                                                   Max.-Head-Change                         Max.-Flux-Residual
  Residual-Control   Outer-Iter.   Inner-Iter.     Column Row Layer    Maximum-Head-Change  Column Row Layer    Maximum-Flux-Residual          L2-NORM 
          0                 1           7            59   93     2      -0.1655792130E+01      62   95    1        -0.3013031400E+05      0.4713007426E+06
          0                 2           6            17   40     2      -0.5934094088E+00      17   40    2        -0.8725762667E+04      0.4849004862E+05
          0                 3           3            17   40     2       0.5772471179E-01      17   40    2         0.9476228219E+03      0.1057310527E+04
          0                 4           1            18   40     2      -0.1809483653E-03      18   40    2        -0.6069042452E+01      0.7054641245E+01

    ------------------------------------------------
       NWT REQUIRED            4 OUTER ITERATIONS 
       AND A TOTAL OF         17 INNER ITERATIONS.
    ------------------------------------------------

 NO OUTPUT CONTROL FOR STRESS PERIOD   19   TIME STEP    8
 
 SOLVING FOR HEAD 
                                                   Max.-Head-Change                         Max.-Flux-Residual
  Residual-Control   Outer-Iter.   Inner-Iter.     Column Row Layer    Maximum-Head-Change  Column Row Layer    Maximum-Flux-Residual          L2-NORM 
          0                 1           7            25   47     2      -0.8332537321E+00      62   95    1        -0.2804762728E+05      0.4675285045E+06
          0                 2           6            58   85     2      -0.4760902779E+00      19   43    3         0.5864320188E+04      0.4763159428E+05
          0                 3           2            58   85     2       0.3916363054E-01      60   94    1        -0.1244645502E+04      0.1377726046E+04
          0                 4           2            60   94     1      -0.1875840478E-02      60   94    1        -0.1120712930E+03      0.1121017305E+03

    ------------------------------------------------
       NWT REQUIRED            4 OUTER ITERATIONS 
       AND A TOTAL OF         17 INNER ITERATIONS.
    ------------------------------------------------

 NO OUTPUT CONTROL FOR STRESS PERIOD   19   TIME STEP    9
 
 SOLVING FOR HEAD 
                                                   Max.-Head-Change                         Max.-Flux-Residual
  Residual-Control   Outer-Iter.   Inner-Iter.     Column Row Layer    Maximum-Head-Change  Column Row Layer    Maximum-Flux-Residual          L2-NORM 
          0                 1           7            25   47     2      -0.8051383153E+00      12    7    2        -0.2662012906E+05      0.4644334942E+06
          0                 2           6            60   94     1      -0.5650289658E+00      60   94    1        -0.1199449215E+05      0.4884270299E+05
          0                 3           2            60   94     1       0.5048994988E-01      60   94    1         0.1179811697E+04      0.1474328548E+04
          0                 4           1            60   94     1       0.6795974908E-04      60   94    1         0.1623249799E+01      0.2394837427E+01

    ------------------------------------------------
       NWT REQUIRED            4 OUTER ITERATIONS 
       AND A TOTAL OF         16 INNER ITERATIONS.
    ------------------------------------------------

 NO OUTPUT CONTROL FOR STRESS PERIOD   19   TIME STEP   10
 
 SOLVING FOR HEAD 
                                                   Max.-Head-Change                         Max.-Flux-Residual
  Residual-Control   Outer-Iter.   Inner-Iter.     Column Row Layer    Maximum-Head-Change  Column Row Layer    Maximum-Flux-Residual          L2-NORM 
          0                 1           7            25   47     2      -0.7822547175E+00      12    7    2        -0.2659591299E+05      0.4622327185E+06
          0                 2           6            68  102     1      -0.4963218360E+00      19   47    3         0.9892626880E+04      0.4736232904E+05
          0                 3           2            68  102     1       0.3899841674E-01      19   43    2         0.2325397075E+03      0.4169863768E+03
          0                 4           1            37   32     1      -0.4877057379E-03      37   32    1        -0.1814586576E+02      0.1995401952E+02

    ------------------------------------------------
       NWT REQUIRED            4 OUTER ITERATIONS 
       AND A TOTAL OF         16 INNER ITERATIONS.
    ------------------------------------------------

 NO OUTPUT CONTROL FOR STRESS PERIOD   19   TIME STEP   11
 
 SOLVING FOR HEAD 
                                                   Max.-Head-Change                         Max.-Flux-Residual
  Residual-Control   Outer-Iter.   Inner-Iter.     Column Row Layer    Maximum-Head-Change  Column Row Layer    Maximum-Flux-Residual          L2-NORM 
          0                 1           7            19   43     2      -0.1521893602E+01      12    7    2        -0.2658546749E+05      0.4601335239E+06
          0                 2           6            37   32     1      -0.1218615759E+01      19   47    2        -0.9158468186E+04      0.4878550237E+05
          0                 3           3            17   33     2       0.1148101455E+00      17   33    2         0.1188385793E+04      0.1782173247E+04
          0                 4           2            18   33     2      -0.1199452470E-02      18   33    2        -0.4379543868E+02      0.4511197149E+02

    ------------------------------------------------
       NWT REQUIRED            4 OUTER ITERATIONS 
       AND A TOTAL OF         18 INNER ITERATIONS.
    ------------------------------------------------

 OUTPUT CONTROL FOR STRESS PERIOD   19   TIME STEP   12
    SAVE BUDGET
 UBDSV1 SAVING "         STORAGE" ON UNIT  39 AT TIME STEP 12, STRESS PERIOD  19
 UBDSV2 SAVING "   CONSTANT HEAD" ON UNIT  39 AT TIME STEP 12, STRESS PERIOD  19
 UBDSV1 SAVING "FLOW RIGHT FACE " ON UNIT  39 AT TIME STEP 12, STRESS PERIOD  19
 UBDSV1 SAVING "FLOW FRONT FACE " ON UNIT  39 AT TIME STEP 12, STRESS PERIOD  19
 UBDSV1 SAVING "FLOW LOWER FACE " ON UNIT  39 AT TIME STEP 12, STRESS PERIOD  19
 UBDSV4 SAVING "           WELLS" ON UNIT  39 AT TIME STEP 12, STRESS PERIOD  19
 UBDSV3 SAVING "              ET" ON UNIT  39 AT TIME STEP 12, STRESS PERIOD  19
 UBDSV3 SAVING "        RECHARGE" ON UNIT  39 AT TIME STEP 12, STRESS PERIOD  19
1
  VOLUMETRIC BUDGET FOR ENTIRE MODEL AT END OF TIME STEP   12, STRESS PERIOD  19
  ------------------------------------------------------------------------------

     CUMULATIVE VOLUMES      L**3       RATES FOR THIS TIME STEP      L**3/T
     ------------------                 ------------------------

           IN:                                      IN:
           ---                                      ---
             STORAGE = 88264933376.0000               STORAGE =    22333414.0000
       CONSTANT HEAD =  8873683968.0000         CONSTANT HEAD =     1346472.5000
               WELLS =  8505944064.0000                 WELLS =     1225642.0000
                  ET =           0.0000                    ET =           0.0000
            RECHARGE = 94403420160.0000              RECHARGE =    17880542.0000

            TOTAL IN =200047984640.0000              TOTAL IN =    42786072.0000

          OUT:                                     OUT:
          ----                                     ----
             STORAGE =  8589106176.0000               STORAGE =     1063901.0000
       CONSTANT HEAD = 24914374656.0000         CONSTANT HEAD =     3862510.7500
               WELLS =159264014336.0000                 WELLS =    36740668.0000
                  ET =  7280524800.0000                    ET =     1118999.8750
            RECHARGE =           0.0000              RECHARGE =           0.0000

           TOTAL OUT =200048017408.0000             TOTAL OUT =    42786080.0000

            IN - OUT =      -32768.0000              IN - OUT =          -8.0000

 PERCENT DISCREPANCY =          -0.00     PERCENT DISCREPANCY =          -0.00






         TIME SUMMARY AT END OF TIME STEP   12 IN STRESS PERIOD   19
                    SECONDS     MINUTES      HOURS       DAYS        YEARS
                    -----------------------------------------------------------
   TIME STEP LENGTH 2.62800E+06  43800.      730.00      30.417     8.32763E-02
 STRESS PERIOD TIME 3.15360E+07 5.25600E+05  8760.0      365.00     0.99932    
         TOTAL TIME 5.99615E+08 9.99359E+06 1.66560E+05  6940.0      19.001    
1
1
                            STRESS PERIOD NO.   20, LENGTH =   365.0000    
                            -----------------------------------------------

                              NUMBER OF TIME STEPS =    12

                               MULTIPLIER FOR DELT =     1.000

                            INITIAL TIME STEP SIZE =   30.41667    

   1750 WELLS

 REUSING SURF FROM LAST STRESS PERIOD

 REUSING EVTR FROM LAST STRESS PERIOD

 REUSING EXDP FROM LAST STRESS PERIOD



                           RECHARGE
 READING ON UNIT   16 WITH FORMAT: (15F5.0)            


     63 TIME-VARIANT SPECIFIED-HEAD CELLS
 
 SOLVING FOR HEAD 
                                                   Max.-Head-Change                         Max.-Flux-Residual
  Residual-Control   Outer-Iter.   Inner-Iter.     Column Row Layer    Maximum-Head-Change  Column Row Layer    Maximum-Flux-Residual          L2-NORM 
          0                 1           7            65    2     2       0.1540219104E+03      70   19    1         0.2463187207E+06      0.1063116951E+07
          0                 2           6            65    7     2      -0.7810173678E+02      65    7    2        -0.2237253905E+07      0.3504746176E+07
          0                 3           3            66    7     2       0.3335754611E+02      65    7    2        -0.8309974622E+05      0.1163619904E+06
          0                 4           3            65    3     2      -0.1498975761E+02      65    3    2        -0.4779757470E+06      0.6719442221E+06
          0                 5           2            65    3     2      -0.2676919017E+01      65    3    2        -0.8428773137E+05      0.1187194621E+06
          0                 6           2            66    3     2       0.4732667609E+00      65    3    2        -0.1450859561E+05      0.2042695072E+05
          0                 7           2            66    3     2       0.1415717462E+00      65    3    2        -0.2481755851E+04      0.3495755480E+04
          0                 8           2            66    3     2       0.4139045182E-01      65    3    2        -0.4237836542E+03      0.5978577717E+03
          0                 9           2            66    3     2       0.1205974912E-01      65    3    2        -0.7230800065E+02      0.1024189674E+03
          0                10           2            66    3     2       0.3511168851E-02      65    3    2        -0.1233038098E+02      0.1764623605E+02

    ------------------------------------------------
       NWT REQUIRED           10 OUTER ITERATIONS 
       AND A TOTAL OF         31 INNER ITERATIONS.
    ------------------------------------------------

 NO OUTPUT CONTROL FOR STRESS PERIOD   20   TIME STEP    1
 
 SOLVING FOR HEAD 
                                                   Max.-Head-Change                         Max.-Flux-Residual
  Residual-Control   Outer-Iter.   Inner-Iter.     Column Row Layer    Maximum-Head-Change  Column Row Layer    Maximum-Flux-Residual          L2-NORM 
          0                 1           7            70   19     2       0.7418219986E+01      70   19    2         0.2206214669E+06      0.8514701206E+06
          0                 2           6            72   15     1      -0.8754596452E+00      72   15    1        -0.2556168835E+05      0.9008044527E+05
          0                 3           2            34   60     1       0.3498779561E-01      34   60    1         0.5973763733E+03      0.6198201230E+03
          0                 4           1            65    1     2      -0.1672916222E-03      61   79    1        -0.1302159056E+01      0.1939291838E+01

    ------------------------------------------------
       NWT REQUIRED            4 OUTER ITERATIONS 
       AND A TOTAL OF         16 INNER ITERATIONS.
    ------------------------------------------------

 NO OUTPUT CONTROL FOR STRESS PERIOD   20   TIME STEP    2
 
 SOLVING FOR HEAD 
                                                   Max.-Head-Change                         Max.-Flux-Residual
  Residual-Control   Outer-Iter.   Inner-Iter.     Column Row Layer    Maximum-Head-Change  Column Row Layer    Maximum-Flux-Residual          L2-NORM 
          0                 1           7            70   19     2       0.6772096859E+01      70   19    2         0.2010379858E+06      0.7852345029E+06
          0                 2           6            36   17     2      -0.1533845377E+01      69   20    1        -0.5172894580E+05      0.9590102561E+05
          0                 3           3            36   17     2       0.1213281708E+00      34   22    1         0.5925083197E+03      0.1043617676E+04
          0                 4           2            36   17     2       0.1498253976E-02      14   16    1        -0.3918605208E+02      0.4037108469E+02

    ------------------------------------------------
       NWT REQUIRED            4 OUTER ITERATIONS 
       AND A TOTAL OF         18 INNER ITERATIONS.
    ------------------------------------------------

 NO OUTPUT CONTROL FOR STRESS PERIOD   20   TIME STEP    3
 
 SOLVING FOR HEAD 
                                                   Max.-Head-Change                         Max.-Flux-Residual
  Residual-Control   Outer-Iter.   Inner-Iter.     Column Row Layer    Maximum-Head-Change  Column Row Layer    Maximum-Flux-Residual          L2-NORM 
          0                 1           7            70   19     2       0.6101103564E+01      70   19    2         0.1840246238E+06      0.7391927738E+06
          0                 2           6            70   19     1      -0.2606923925E+01      70   19    1        -0.9499367875E+05      0.1219303670E+06
          0                 3           3            70   18     2       0.7015722838E+00      70   18    2         0.2759394986E+05      0.2776645132E+05
          0                 4           2            70   18     2       0.6308706990E-01      70   18    2         0.2481344223E+04      0.2493185890E+04
          0                 5           2            70   18     2       0.5672000938E-02      70   18    2         0.2230646832E+03      0.2241294616E+03

    ------------------------------------------------
       NWT REQUIRED            5 OUTER ITERATIONS 
       AND A TOTAL OF         20 INNER ITERATIONS.
    ------------------------------------------------

 NO OUTPUT CONTROL FOR STRESS PERIOD   20   TIME STEP    4
 
 SOLVING FOR HEAD 
                                                   Max.-Head-Change                         Max.-Flux-Residual
  Residual-Control   Outer-Iter.   Inner-Iter.     Column Row Layer    Maximum-Head-Change  Column Row Layer    Maximum-Flux-Residual          L2-NORM 
          0                 1           7            73   14     2       0.5373630653E+01      70   19    2         0.1516454146E+06      0.7049826852E+06
          0                 2           6            70   18     2       0.8377103186E+01      70   18    2         0.6501414517E+05      0.9728280838E+05
          0                 3           3            70   18     2      -0.8232224589E+00      70   18    2        -0.7245615092E+04      0.7608093511E+04
          0                 4           1            70   19     2       0.8792621202E-03      50   43    1        -0.4222020425E+02      0.5919364853E+02

    ------------------------------------------------
       NWT REQUIRED            4 OUTER ITERATIONS 
       AND A TOTAL OF         17 INNER ITERATIONS.
    ------------------------------------------------

 NO OUTPUT CONTROL FOR STRESS PERIOD   20   TIME STEP    5
 
 SOLVING FOR HEAD 
                                                   Max.-Head-Change                         Max.-Flux-Residual
  Residual-Control   Outer-Iter.   Inner-Iter.     Column Row Layer    Maximum-Head-Change  Column Row Layer    Maximum-Flux-Residual          L2-NORM 
          0                 1           7            73   14     2       0.5119818131E+01      73   14    2         0.1233379389E+06      0.6831376713E+06
          0                 2           6            73   15     2      -0.2860703964E+01      73   15    2        -0.8282451123E+05      0.1084950205E+06
          0                 3           3            16   29     2      -0.5003326768E-01      16   29    2        -0.2626435306E+04      0.2651198177E+04
          0                 4           2            16   29     2      -0.4505430570E-02      16   29    2        -0.2365780826E+03      0.2366159923E+03

    ------------------------------------------------
       NWT REQUIRED            4 OUTER ITERATIONS 
       AND A TOTAL OF         18 INNER ITERATIONS.
    ------------------------------------------------

 NO OUTPUT CONTROL FOR STRESS PERIOD   20   TIME STEP    6
 
 SOLVING FOR HEAD 
                                                   Max.-Head-Change                         Max.-Flux-Residual
  Residual-Control   Outer-Iter.   Inner-Iter.     Column Row Layer    Maximum-Head-Change  Column Row Layer    Maximum-Flux-Residual          L2-NORM 
          0                 1           7            73   14     2       0.4846465467E+01      73   14    2         0.1172444922E+06      0.6637796898E+06
          0                 2           6            69   20     2       0.2153695679E+01      69   21    1        -0.6057643516E+05      0.9455766630E+05
          0                 3           3            71   16     2       0.6913902606E+00      71   16    2         0.2658770831E+05      0.2728329497E+05
          0                 4           2            71   16     2       0.6212515910E-01      71   16    2         0.2389374905E+04      0.2439577117E+04
          0                 5           2            71   16     2       0.5584989074E-02      71   16    2         0.2147784615E+03      0.2192946997E+03

    ------------------------------------------------
       NWT REQUIRED            5 OUTER ITERATIONS 
       AND A TOTAL OF         20 INNER ITERATIONS.
    ------------------------------------------------

 NO OUTPUT CONTROL FOR STRESS PERIOD   20   TIME STEP    7
 
 SOLVING FOR HEAD 
                                                   Max.-Head-Change                         Max.-Flux-Residual
  Residual-Control   Outer-Iter.   Inner-Iter.     Column Row Layer    Maximum-Head-Change  Column Row Layer    Maximum-Flux-Residual          L2-NORM 
          0                 1           7            73   14     2       0.4579349394E+01      73   14    2         0.1110733830E+06      0.6486553950E+06
          0                 2           6            71   16     2       0.9448497254E+01      71   16    2         0.6448925173E+05      0.9246440134E+05
          0                 3           3            71   16     2      -0.1017945507E+01      71   16    2        -0.8011556255E+04      0.8490688973E+04
          0                 4           2            34   33     1      -0.5499300259E-02      34   33    1        -0.1513331636E+03      0.2161804107E+03

    ------------------------------------------------
       NWT REQUIRED            4 OUTER ITERATIONS 
       AND A TOTAL OF         18 INNER ITERATIONS.
    ------------------------------------------------

 NO OUTPUT CONTROL FOR STRESS PERIOD   20   TIME STEP    8
 
 SOLVING FOR HEAD 
                                                   Max.-Head-Change                         Max.-Flux-Residual
  Residual-Control   Outer-Iter.   Inner-Iter.     Column Row Layer    Maximum-Head-Change  Column Row Layer    Maximum-Flux-Residual          L2-NORM 
          0                 1           7            71   16     1       0.4422416773E+01      71   16    1         0.1130767573E+06      0.6409502183E+06
          0                 2           6            18   39     2      -0.1150538253E+01      64   28    1        -0.1641381323E+05      0.6777504813E+05
          0                 3           3            18   39     2       0.1010635817E+00      18   39    2         0.6687930075E+03      0.1197543304E+04
          0                 4           1            18   39     2       0.3052317199E-03      18   39    2         0.1919834638E+01      0.2690747894E+01

    ------------------------------------------------
       NWT REQUIRED            4 OUTER ITERATIONS 
       AND A TOTAL OF         17 INNER ITERATIONS.
    ------------------------------------------------

 NO OUTPUT CONTROL FOR STRESS PERIOD   20   TIME STEP    9
 
 SOLVING FOR HEAD 
                                                   Max.-Head-Change                         Max.-Flux-Residual
  Residual-Control   Outer-Iter.   Inner-Iter.     Column Row Layer    Maximum-Head-Change  Column Row Layer    Maximum-Flux-Residual          L2-NORM 
          0                 1           7            71   16     1       0.4173654443E+01      71   16    1         0.1104672334E+06      0.6312688648E+06
          0                 2           5            73   14     1      -0.2784964252E+01      73   14    1        -0.9653291685E+05      0.1162103684E+06
          0                 3           2            73   15     3      -0.1002418547E+00      73   15    3        -0.9738626779E+03      0.1267696763E+04
          0                 4           1            72   14     1       0.4695341858E-03      72   14    1         0.3376474783E+01      0.4765119780E+01

    ------------------------------------------------
       NWT REQUIRED            4 OUTER ITERATIONS 
       AND A TOTAL OF         15 INNER ITERATIONS.
    ------------------------------------------------

 NO OUTPUT CONTROL FOR STRESS PERIOD   20   TIME STEP   10
 
 SOLVING FOR HEAD 
                                                   Max.-Head-Change                         Max.-Flux-Residual
  Residual-Control   Outer-Iter.   Inner-Iter.     Column Row Layer    Maximum-Head-Change  Column Row Layer    Maximum-Flux-Residual          L2-NORM 
          0                 1           7            73   15     3       0.8368830437E+01      71   16    1         0.1042748984E+06      0.6202730287E+06
          0                 2           6            66   25     1      -0.1058301577E+01      66   25    1        -0.5150786484E+05      0.8171083418E+05
          0                 3           2            31   47     2       0.7443960930E-01      26   40    1         0.5966196252E+03      0.8359574232E+03
          0                 4           1            31   47     2       0.2210955048E-03      66   26    1         0.1179999396E+01      0.3865838921E+01

    ------------------------------------------------
       NWT REQUIRED            4 OUTER ITERATIONS 
       AND A TOTAL OF         16 INNER ITERATIONS.
    ------------------------------------------------

 NO OUTPUT CONTROL FOR STRESS PERIOD   20   TIME STEP   11
 
 SOLVING FOR HEAD 
                                                   Max.-Head-Change                         Max.-Flux-Residual
  Residual-Control   Outer-Iter.   Inner-Iter.     Column Row Layer    Maximum-Head-Change  Column Row Layer    Maximum-Flux-Residual          L2-NORM 
          0                 1           7            73   15     2       0.4100002442E+01      71   16    1         0.9849299074E+05      0.6143468005E+06
          0                 2           6            17   32     2      -0.3830562489E+00      71   16    1        -0.9928954604E+04      0.6264383866E+05
          0                 3           2            17   32     2       0.3413212377E-01      23   32    1         0.5461756454E+03      0.8390533655E+03
          0                 4           1            66    2     2      -0.9804077733E-04      23   32    1         0.8151413947E+00      0.2126788114E+01

    ------------------------------------------------
       NWT REQUIRED            4 OUTER ITERATIONS 
       AND A TOTAL OF         16 INNER ITERATIONS.
    ------------------------------------------------

 OUTPUT CONTROL FOR STRESS PERIOD   20   TIME STEP   12
    SAVE BUDGET
 UBDSV1 SAVING "         STORAGE" ON UNIT  39 AT TIME STEP 12, STRESS PERIOD  20
 UBDSV2 SAVING "   CONSTANT HEAD" ON UNIT  39 AT TIME STEP 12, STRESS PERIOD  20
 UBDSV1 SAVING "FLOW RIGHT FACE " ON UNIT  39 AT TIME STEP 12, STRESS PERIOD  20
 UBDSV1 SAVING "FLOW FRONT FACE " ON UNIT  39 AT TIME STEP 12, STRESS PERIOD  20
 UBDSV1 SAVING "FLOW LOWER FACE " ON UNIT  39 AT TIME STEP 12, STRESS PERIOD  20
 UBDSV4 SAVING "           WELLS" ON UNIT  39 AT TIME STEP 12, STRESS PERIOD  20
 UBDSV3 SAVING "              ET" ON UNIT  39 AT TIME STEP 12, STRESS PERIOD  20
 UBDSV3 SAVING "        RECHARGE" ON UNIT  39 AT TIME STEP 12, STRESS PERIOD  20
1
  VOLUMETRIC BUDGET FOR ENTIRE MODEL AT END OF TIME STEP   12, STRESS PERIOD  20
  ------------------------------------------------------------------------------

     CUMULATIVE VOLUMES      L**3       RATES FOR THIS TIME STEP      L**3/T
     ------------------                 ------------------------

           IN:                                      IN:
           ---                                      ---
             STORAGE = 97019904000.0000               STORAGE =    23592808.0000
       CONSTANT HEAD =  9398874112.0000         CONSTANT HEAD =     1476530.8750
               WELLS =  8953300992.0000                 WELLS =     1225642.0000
                  ET =           0.0000                    ET =           0.0000
            RECHARGE =102061105152.0000              RECHARGE =    20980054.0000

            TOTAL IN =217433178112.0000              TOTAL IN =    47275032.0000

          OUT:                                     OUT:
          ----                                     ----
             STORAGE = 10578731008.0000               STORAGE =     5221613.5000
       CONSTANT HEAD = 26324576256.0000         CONSTANT HEAD =     3844513.5000
               WELLS =172936921088.0000                 WELLS =    37460224.0000
                  ET =  7592968192.0000                    ET =      748678.3750
            RECHARGE =           0.0000              RECHARGE =           0.0000

           TOTAL OUT =217433210880.0000             TOTAL OUT =    47275028.0000

            IN - OUT =      -32768.0000              IN - OUT =           4.0000

 PERCENT DISCREPANCY =          -0.00     PERCENT DISCREPANCY =           0.00






         TIME SUMMARY AT END OF TIME STEP   12 IN STRESS PERIOD   20
                    SECONDS     MINUTES      HOURS       DAYS        YEARS
                    -----------------------------------------------------------
   TIME STEP LENGTH 2.62800E+06  43800.      730.00      30.417     8.32763E-02
 STRESS PERIOD TIME 3.15360E+07 5.25600E+05  8760.0      365.00     0.99932    
         TOTAL TIME 6.31151E+08 1.05192E+07 1.75320E+05  7305.0      20.000    
1
1
                            STRESS PERIOD NO.   21, LENGTH =   366.0000    
                            -----------------------------------------------

                              NUMBER OF TIME STEPS =    12

                               MULTIPLIER FOR DELT =     1.000

                            INITIAL TIME STEP SIZE =   30.50000    

   1825 WELLS

 REUSING SURF FROM LAST STRESS PERIOD

 REUSING EVTR FROM LAST STRESS PERIOD

 REUSING EXDP FROM LAST STRESS PERIOD



                           RECHARGE
 READING ON UNIT   16 WITH FORMAT: (15F5.0)            


     63 TIME-VARIANT SPECIFIED-HEAD CELLS
 
 SOLVING FOR HEAD 
                                                   Max.-Head-Change                         Max.-Flux-Residual
  Residual-Control   Outer-Iter.   Inner-Iter.     Column Row Layer    Maximum-Head-Change  Column Row Layer    Maximum-Flux-Residual          L2-NORM 
          0                 1           8            65    1     2      -0.4705219082E+02      58  101    3        -0.3243069526E+06      0.1157899887E+07
          0                 2           6            66   14     1       0.2197528948E+01      58  101    3         0.3543262397E+05      0.1180178652E+06
          0                 3           2            66   25     1       0.1226166449E+00      66   25    1         0.1746153369E+04      0.2215063113E+04
          0                 4           2            66    3     2       0.3253347082E-02      20   71    2        -0.2617553046E+02      0.4010923474E+02

    ------------------------------------------------
       NWT REQUIRED            4 OUTER ITERATIONS 
       AND A TOTAL OF         18 INNER ITERATIONS.
    ------------------------------------------------

 NO OUTPUT CONTROL FOR STRESS PERIOD   21   TIME STEP    1
 
 SOLVING FOR HEAD 
                                                   Max.-Head-Change                         Max.-Flux-Residual
  Residual-Control   Outer-Iter.   Inner-Iter.     Column Row Layer    Maximum-Head-Change  Column Row Layer    Maximum-Flux-Residual          L2-NORM 
          0                 1           7            51  103     3       0.3877759977E+01      70   19    1        -0.1134000885E+06      0.7184885907E+06
          0                 2           6            69   21     1      -0.9439216311E+01      69   21    1        -0.4497039863E+05      0.9030111368E+05
          0                 3           3            69   21     1       0.9011267439E+00      69   21    1         0.5620203191E+04      0.8380815119E+04
          0                 4           2            69   21     1       0.5103482160E-02      69   20    1         0.5368226859E+02      0.6593001332E+02

    ------------------------------------------------
       NWT REQUIRED            4 OUTER ITERATIONS 
       AND A TOTAL OF         18 INNER ITERATIONS.
    ------------------------------------------------

 NO OUTPUT CONTROL FOR STRESS PERIOD   21   TIME STEP    2
 
 SOLVING FOR HEAD 
                                                   Max.-Head-Change                         Max.-Flux-Residual
  Residual-Control   Outer-Iter.   Inner-Iter.     Column Row Layer    Maximum-Head-Change  Column Row Layer    Maximum-Flux-Residual          L2-NORM 
          0                 1           7            69   21     1      -0.7503637399E+01      58  101    2        -0.9014083125E+05      0.6327553256E+06
          0                 2           6            65    2     2      -0.7699980196E+02      65    2    2        -0.3119543978E+05      0.7143212912E+05
          0                 3           3            65    2     2       0.2494069698E+01      25   38    1        -0.6388300640E+04      0.7252216182E+04
          0                 4           2            65    2     2       0.1406246097E+00      25   38    1        -0.5757193417E+03      0.5798209942E+03
          0                 5           2            65    2     2       0.7932337122E-02      25   38    1        -0.5177106419E+02      0.5221439871E+02

    ------------------------------------------------
       NWT REQUIRED            5 OUTER ITERATIONS 
       AND A TOTAL OF         20 INNER ITERATIONS.
    ------------------------------------------------

 NO OUTPUT CONTROL FOR STRESS PERIOD   21   TIME STEP    3
 
 SOLVING FOR HEAD 
                                                   Max.-Head-Change                         Max.-Flux-Residual
  Residual-Control   Outer-Iter.   Inner-Iter.     Column Row Layer    Maximum-Head-Change  Column Row Layer    Maximum-Flux-Residual          L2-NORM 
          0                 1           7            66    1     2      -0.6349878423E+02      58  101    2        -0.8053785794E+05      0.5900760504E+06
          0                 2           6            66    1     2       0.1729506871E+01      72   15    2         0.3617474947E+05      0.7120411244E+05
          0                 3           2            66    1     2       0.1086084615E+00      25   38    1         0.8099017093E+03      0.1179590872E+04
          0                 4           2            66    1     2       0.6807909499E-02      12    8    1        -0.6506614596E+01      0.7766011238E+01

    ------------------------------------------------
       NWT REQUIRED            4 OUTER ITERATIONS 
       AND A TOTAL OF         17 INNER ITERATIONS.
    ------------------------------------------------

 NO OUTPUT CONTROL FOR STRESS PERIOD   21   TIME STEP    4
 
 SOLVING FOR HEAD 
                                                   Max.-Head-Change                         Max.-Flux-Residual
  Residual-Control   Outer-Iter.   Inner-Iter.     Column Row Layer    Maximum-Head-Change  Column Row Layer    Maximum-Flux-Residual          L2-NORM 
          0                 1           7            51  103     3       0.3725173137E+01      51  103    3         0.7850791567E+05      0.5602493964E+06
          0                 2           6            66    4     2      -0.1290761984E+01      51  103    3        -0.7887021495E+04      0.5716884343E+05
          0                 3           2            66    4     2       0.4206983508E-01      12    8    1        -0.1148516272E+04      0.1345145901E+04
          0                 4           2            66    4     2       0.2469411935E-02      12    8    1         0.1413712144E+02      0.1780283691E+02

    ------------------------------------------------
       NWT REQUIRED            4 OUTER ITERATIONS 
       AND A TOTAL OF         17 INNER ITERATIONS.
    ------------------------------------------------

 NO OUTPUT CONTROL FOR STRESS PERIOD   21   TIME STEP    5
 
 SOLVING FOR HEAD 
                                                   Max.-Head-Change                         Max.-Flux-Residual
  Residual-Control   Outer-Iter.   Inner-Iter.     Column Row Layer    Maximum-Head-Change  Column Row Layer    Maximum-Flux-Residual          L2-NORM 
          0                 1           7            66    4     2      -0.1101631286E+02      51  103    3         0.7741545252E+05      0.5398244919E+06
          0                 2           6            65    6     2      -0.3674892741E+02      65    6    2        -0.2079919526E+05      0.5933451584E+05
          0                 3           3            65    6     2       0.2904106148E+01      65    6    3        -0.2017516782E+04      0.3381129825E+04
          0                 4           2            65    6     2       0.1109121718E+00      65    6    2         0.7371729917E+02      0.1047677375E+03
          0                 5           2            65    6     2       0.4215397670E-02      65    6    3         0.6026442744E+01      0.8738610771E+01

    ------------------------------------------------
       NWT REQUIRED            5 OUTER ITERATIONS 
       AND A TOTAL OF         20 INNER ITERATIONS.
    ------------------------------------------------

 NO OUTPUT CONTROL FOR STRESS PERIOD   21   TIME STEP    6
 
 SOLVING FOR HEAD 
                                                   Max.-Head-Change                         Max.-Flux-Residual
  Residual-Control   Outer-Iter.   Inner-Iter.     Column Row Layer    Maximum-Head-Change  Column Row Layer    Maximum-Flux-Residual          L2-NORM 
          0                 1           7            65    6     2      -0.4647789226E+01      51  103    3         0.7628863257E+05      0.5238862955E+06
          0                 2           6            65    3     2      -0.2113706636E+02      12    8    1         0.8915875033E+04      0.5451336939E+05
          0                 3           2            65    3     2       0.8141168052E+00      12    8    1        -0.1696541788E+04      0.2470630854E+04
          0                 4           2            65    3     2       0.4225280117E-01      15    9    1         0.8707160199E+02      0.1143158384E+03
          0                 5           2            65    3     2       0.2191231492E-02      12    8    1         0.3625742137E+01      0.5190019159E+01

    ------------------------------------------------
       NWT REQUIRED            5 OUTER ITERATIONS 
       AND A TOTAL OF         19 INNER ITERATIONS.
    ------------------------------------------------

 NO OUTPUT CONTROL FOR STRESS PERIOD   21   TIME STEP    7
 
 SOLVING FOR HEAD 
                                                   Max.-Head-Change                         Max.-Flux-Residual
  Residual-Control   Outer-Iter.   Inner-Iter.     Column Row Layer    Maximum-Head-Change  Column Row Layer    Maximum-Flux-Residual          L2-NORM 
          0                 1           7            65    3     2      -0.1588334269E+02      51  103    3         0.7513083758E+05      0.5115615617E+06
          0                 2           6            21   46     2      -0.1210601635E+01      14    6    2         0.1205330999E+05      0.5459237083E+05
          0                 3           3            21   46     2       0.1069329232E+00      15    9    1        -0.2081223322E+04      0.3248686693E+04
          0                 4           2            15    9     1       0.1762823232E-02      15    9    1         0.1886402662E+03      0.2115738282E+03

    ------------------------------------------------
       NWT REQUIRED            4 OUTER ITERATIONS 
       AND A TOTAL OF         18 INNER ITERATIONS.
    ------------------------------------------------

 NO OUTPUT CONTROL FOR STRESS PERIOD   21   TIME STEP    8
 
 SOLVING FOR HEAD 
                                                   Max.-Head-Change                         Max.-Flux-Residual
  Residual-Control   Outer-Iter.   Inner-Iter.     Column Row Layer    Maximum-Head-Change  Column Row Layer    Maximum-Flux-Residual          L2-NORM 
          0                 1           7            51  103     3       0.3499431107E+01      51  103    3         0.7394547089E+05      0.5021838619E+06
          0                 2           6            65    5     2      -0.3252513921E+02      70   19    1        -0.2252227119E+05      0.6181335312E+05
          0                 3           3            65    5     2       0.2371013772E+01      15    9    1        -0.2629792970E+04      0.5254958767E+04
          0                 4           2            65    5     2       0.1056043763E+00      15    9    1         0.3251957891E+03      0.4199590097E+03
          0                 5           2            65    5     2       0.4687644464E-02      14    7    1        -0.1983139856E+02      0.2288784350E+02

    ------------------------------------------------
       NWT REQUIRED            5 OUTER ITERATIONS 
       AND A TOTAL OF         20 INNER ITERATIONS.
    ------------------------------------------------

 NO OUTPUT CONTROL FOR STRESS PERIOD   21   TIME STEP    9
 
 SOLVING FOR HEAD 
                                                   Max.-Head-Change                         Max.-Flux-Residual
  Residual-Control   Outer-Iter.   Inner-Iter.     Column Row Layer    Maximum-Head-Change  Column Row Layer    Maximum-Flux-Residual          L2-NORM 
          0                 1           7            65    5     2      -0.7086420776E+01      51  103    3         0.7273593985E+05      0.4945157563E+06
          0                 2           6            51  103     3      -0.3137900783E+00      14    7    1        -0.1164594813E+05      0.5300569449E+05
          0                 3           2            15    9     1      -0.3011412555E-01      15    9    1        -0.2961483240E+04      0.3881908262E+04
          0                 4           2            15    9     1       0.3993960585E-02      15    9    1         0.4333060359E+03      0.4530378844E+03

    ------------------------------------------------
       NWT REQUIRED            4 OUTER ITERATIONS 
       AND A TOTAL OF         17 INNER ITERATIONS.
    ------------------------------------------------

 NO OUTPUT CONTROL FOR STRESS PERIOD   21   TIME STEP   10
 
 SOLVING FOR HEAD 
                                                   Max.-Head-Change                         Max.-Flux-Residual
  Residual-Control   Outer-Iter.   Inner-Iter.     Column Row Layer    Maximum-Head-Change  Column Row Layer    Maximum-Flux-Residual          L2-NORM 
          0                 1           7            51  103     3       0.3379942313E+01      51  103    3         0.7150563250E+05      0.4888517496E+06
          0                 2           6            51  103     3      -0.3082763120E+00      31   20    2         0.1258514073E+05      0.5457435496E+05
          0                 3           3            15    9     1      -0.3479483595E-01      15    9    1        -0.3417784135E+04      0.4200467242E+04
          0                 4           2            15    9     1       0.5266125228E-02      15    9    1         0.5696343482E+03      0.5860972248E+03

    ------------------------------------------------
       NWT REQUIRED            4 OUTER ITERATIONS 
       AND A TOTAL OF         18 INNER ITERATIONS.
    ------------------------------------------------

 NO OUTPUT CONTROL FOR STRESS PERIOD   21   TIME STEP   11

 INTERPOLATION FOR HEAD OBS# 1738, ID 2615-21-353  CHANGED BECAUSE AT LEAST ONE
 NEIGHBORING CELL REQUIRED FOR INTERPOLATION IS DRY OR INACTIVE (OBS2BAS7SE)
 
 SOLVING FOR HEAD 
                                                   Max.-Head-Change                         Max.-Flux-Residual
  Residual-Control   Outer-Iter.   Inner-Iter.     Column Row Layer    Maximum-Head-Change  Column Row Layer    Maximum-Flux-Residual          L2-NORM 
          0                 1           7            51  103     3       0.3319109046E+01      51  103    3         0.7025790971E+05      0.4831830389E+06
          0                 2           6            51  103     3      -0.3027016883E+00      15    9    1         0.1044106904E+05      0.5074954476E+05
          0                 3           3            15    9     1      -0.3805414801E-01      15    9    1        -0.3734803663E+04      0.4388995351E+04
          0                 4           2            15    9     1       0.6341332001E-02      15    9    1         0.6853458847E+03      0.6980277032E+03

    ------------------------------------------------
       NWT REQUIRED            4 OUTER ITERATIONS 
       AND A TOTAL OF         18 INNER ITERATIONS.
    ------------------------------------------------

 OUTPUT CONTROL FOR STRESS PERIOD   21   TIME STEP   12
    SAVE BUDGET
    SAVE HEAD FOR LAYERS:   1  2  3
 UBDSV1 SAVING "         STORAGE" ON UNIT  39 AT TIME STEP 12, STRESS PERIOD  21
 UBDSV2 SAVING "   CONSTANT HEAD" ON UNIT  39 AT TIME STEP 12, STRESS PERIOD  21
 UBDSV1 SAVING "FLOW RIGHT FACE " ON UNIT  39 AT TIME STEP 12, STRESS PERIOD  21
 UBDSV1 SAVING "FLOW FRONT FACE " ON UNIT  39 AT TIME STEP 12, STRESS PERIOD  21
 UBDSV1 SAVING "FLOW LOWER FACE " ON UNIT  39 AT TIME STEP 12, STRESS PERIOD  21
 UBDSV4 SAVING "           WELLS" ON UNIT  39 AT TIME STEP 12, STRESS PERIOD  21
 UBDSV3 SAVING "              ET" ON UNIT  39 AT TIME STEP 12, STRESS PERIOD  21
 UBDSV3 SAVING "        RECHARGE" ON UNIT  39 AT TIME STEP 12, STRESS PERIOD  21

 INTERPOLATION FOR HEAD OBS# 1079, ID 2927-22-17   CHANGED BECAUSE AT LEAST ONE
 NEIGHBORING CELL REQUIRED FOR INTERPOLATION IS DRY OR INACTIVE (OBS2BAS7SE)

 INTERPOLATION FOR HEAD OBS# 3406, ID 1428-22-12   CHANGED BECAUSE AT LEAST ONE
 NEIGHBORING CELL REQUIRED FOR INTERPOLATION IS DRY OR INACTIVE (OBS2BAS7SE)

 INTERPOLATION FOR HEAD OBS# 3712, ID 1471-22-26   CHANGED BECAUSE AT LEAST ONE
 NEIGHBORING CELL REQUIRED FOR INTERPOLATION IS DRY OR INACTIVE (OBS2BAS7SE)

 INTERPOLATION FOR HEAD OBS# 3780, ID 1349-22-30   CHANGED BECAUSE AT LEAST ONE
 NEIGHBORING CELL REQUIRED FOR INTERPOLATION IS DRY OR INACTIVE (OBS2BAS7SE)

 HEAD WILL BE SAVED ON UNIT   31 AT END OF TIME STEP   12, STRESS PERIOD   21
1
  VOLUMETRIC BUDGET FOR ENTIRE MODEL AT END OF TIME STEP   12, STRESS PERIOD  21
  ------------------------------------------------------------------------------

     CUMULATIVE VOLUMES      L**3       RATES FOR THIS TIME STEP      L**3/T
     ------------------                 ------------------------

           IN:                                      IN:
           ---                                      ---
             STORAGE =106120421376.0000               STORAGE =    23958440.0000
       CONSTANT HEAD =  9912506368.0000         CONSTANT HEAD =     1374399.6250
               WELLS =  9401886720.0000                 WELLS =     1225642.0000
                  ET =           0.0000                    ET =           0.0000
            RECHARGE =109100064768.0000              RECHARGE =    19232074.0000

            TOTAL IN =234534879232.0000              TOTAL IN =    45790556.0000

          OUT:                                     OUT:
          ----                                     ----
             STORAGE = 11371330560.0000               STORAGE =     1218484.6250
       CONSTANT HEAD = 27738650624.0000         CONSTANT HEAD =     3897599.2500
               WELLS =187512111104.0000                 WELLS =    39756564.0000
                  ET =  7912803840.0000                    ET =      917954.3125
            RECHARGE =           0.0000              RECHARGE =           0.0000

           TOTAL OUT =234534895616.0000             TOTAL OUT =    45790604.0000

            IN - OUT =      -16384.0000              IN - OUT =         -48.0000

 PERCENT DISCREPANCY =          -0.00     PERCENT DISCREPANCY =          -0.00






         TIME SUMMARY AT END OF TIME STEP   12 IN STRESS PERIOD   21
                    SECONDS     MINUTES      HOURS       DAYS        YEARS
                    -----------------------------------------------------------
   TIME STEP LENGTH 2.63520E+06  43920.      732.00      30.500     8.35044E-02
 STRESS PERIOD TIME 3.16224E+07 5.27040E+05  8784.0      366.00      1.0021    
         TOTAL TIME 6.62774E+08 1.10462E+07 1.84104E+05  7671.0      21.002    
1
1
                            STRESS PERIOD NO.   22, LENGTH =   365.0000    
                            -----------------------------------------------

                              NUMBER OF TIME STEPS =    12

                               MULTIPLIER FOR DELT =     1.000

                            INITIAL TIME STEP SIZE =   30.41667    

   1856 WELLS

 REUSING SURF FROM LAST STRESS PERIOD

 REUSING EVTR FROM LAST STRESS PERIOD

 REUSING EXDP FROM LAST STRESS PERIOD



                           RECHARGE
 READING ON UNIT   16 WITH FORMAT: (15F5.0)            


     63 TIME-VARIANT SPECIFIED-HEAD CELLS
 
 SOLVING FOR HEAD 
                                                   Max.-Head-Change                         Max.-Flux-Residual
  Residual-Control   Outer-Iter.   Inner-Iter.     Column Row Layer    Maximum-Head-Change  Column Row Layer    Maximum-Flux-Residual          L2-NORM 
          0                 1           7            65    2     2       0.1085137188E+03      18   17    2         0.2802126948E+06      0.9977998689E+06
          0                 2           6            65    5     2      -0.2379620648E+02      65    5    2        -0.6363406015E+06      0.9500395056E+06
          0                 3           3            66    5     2       0.3178266715E+01      65    5    2        -0.6916869552E+04      0.9138605427E+04
          0                 4           2            66    5     2       0.4855590971E+00      65    4    2         0.3157576284E+03      0.4590175278E+03
          0                 5           2            66    5     2       0.7305198994E-01      66    5    2         0.3041368814E+02      0.5083949680E+02
          0                 6           2            66    5     2       0.1098390217E-01      66    5    2         0.4572640679E+01      0.6220682201E+01
          0                 7           2            66    5     2       0.1650475639E-02      66    5    2         0.6870547526E+00      0.8294612591E+00

    ------------------------------------------------
       NWT REQUIRED            7 OUTER ITERATIONS 
       AND A TOTAL OF         24 INNER ITERATIONS.
    ------------------------------------------------

 NO OUTPUT CONTROL FOR STRESS PERIOD   22   TIME STEP    1

 INTERPOLATION FOR HEAD OBS# 1565, ID 2931-22-31   CHANGED BECAUSE AT LEAST ONE
 NEIGHBORING CELL REQUIRED FOR INTERPOLATION IS DRY OR INACTIVE (OBS2BAS7SE)

 INTERPOLATION FOR HEAD OBS# 3756, ID 1427-22-31   CHANGED BECAUSE AT LEAST ONE
 NEIGHBORING CELL REQUIRED FOR INTERPOLATION IS DRY OR INACTIVE (OBS2BAS7SE)

 INTERPOLATION FOR HEAD OBS# 5432, ID 846-22-33    CHANGED BECAUSE AT LEAST ONE
 NEIGHBORING CELL REQUIRED FOR INTERPOLATION IS DRY OR INACTIVE (OBS2BAS7SE)

 INTERPOLATION FOR HEAD OBS# 5693, ID 1168-22-32   CHANGED BECAUSE AT LEAST ONE
 NEIGHBORING CELL REQUIRED FOR INTERPOLATION IS DRY OR INACTIVE (OBS2BAS7SE)

 INTERPOLATION FOR HEAD OBS# 6267, ID 987-22-33    CHANGED BECAUSE AT LEAST ONE
 NEIGHBORING CELL REQUIRED FOR INTERPOLATION IS DRY OR INACTIVE (OBS2BAS7SE)
 
 SOLVING FOR HEAD 
                                                   Max.-Head-Change                         Max.-Flux-Residual
  Residual-Control   Outer-Iter.   Inner-Iter.     Column Row Layer    Maximum-Head-Change  Column Row Layer    Maximum-Flux-Residual          L2-NORM 
          0                 1           7            51  103     3       0.4925443052E+01      72   15    1         0.1085718155E+06      0.6923674057E+06
          0                 2           6            64   28     1      -0.8875783500E+00      64   28    1        -0.4285340858E+05      0.8226641005E+05
          0                 3           2            31   21     1       0.3414806407E-01      31   21    1         0.9038742796E+03      0.9960526539E+03
          0                 4           1            60   61     1       0.1768326717E-03      60   61    1         0.1494254941E+02      0.1542795136E+02

    ------------------------------------------------
       NWT REQUIRED            4 OUTER ITERATIONS 
       AND A TOTAL OF         16 INNER ITERATIONS.
    ------------------------------------------------

 NO OUTPUT CONTROL FOR STRESS PERIOD   22   TIME STEP    2

 INTERPOLATION FOR HEAD OBS# 3198, ID 2435-22-72   CHANGED BECAUSE AT LEAST ONE
 NEIGHBORING CELL REQUIRED FOR INTERPOLATION IS DRY OR INACTIVE (OBS2BAS7SE)
 
 SOLVING FOR HEAD 
                                                   Max.-Head-Change                         Max.-Flux-Residual
  Residual-Control   Outer-Iter.   Inner-Iter.     Column Row Layer    Maximum-Head-Change  Column Row Layer    Maximum-Flux-Residual          L2-NORM 
          0                 1           7            51  103     3       0.4825267646E+01      51  103    3         0.1026615746E+06      0.6336005872E+06
          0                 2           6            73   14     1      -0.1971323229E+01      73   14    1        -0.6738564233E+05      0.1004445181E+06
          0                 3           2            27   35     1       0.1225373423E-01      27   35    1         0.3760914567E+03      0.4121389256E+03
          0                 4           1            72   14     1       0.2643431804E-03      14    8    1        -0.2958076000E+01      0.4337002412E+01

    ------------------------------------------------
       NWT REQUIRED            4 OUTER ITERATIONS 
       AND A TOTAL OF         16 INNER ITERATIONS.
    ------------------------------------------------

 NO OUTPUT CONTROL FOR STRESS PERIOD   22   TIME STEP    3
 
 SOLVING FOR HEAD 
                                                   Max.-Head-Change                         Max.-Flux-Residual
  Residual-Control   Outer-Iter.   Inner-Iter.     Column Row Layer    Maximum-Head-Change  Column Row Layer    Maximum-Flux-Residual          L2-NORM 
          0                 1           7            51  103     3       0.4723724638E+01      51  103    3         0.1005794737E+06      0.6029554438E+06
          0                 2           6            66   25     1      -0.4942143941E+00      66   25    1        -0.2264010312E+05      0.6492197056E+05
          0                 3           2            21   23     2       0.1061514706E-01      21   23    2         0.7755411084E+03      0.7813407580E+03
          0                 4           1            65    1     2      -0.7641070138E-04      14    8    1        -0.6420428783E+01      0.6579560154E+01

    ------------------------------------------------
       NWT REQUIRED            4 OUTER ITERATIONS 
       AND A TOTAL OF         16 INNER ITERATIONS.
    ------------------------------------------------

 NO OUTPUT CONTROL FOR STRESS PERIOD   22   TIME STEP    4
 
 SOLVING FOR HEAD 
                                                   Max.-Head-Change                         Max.-Flux-Residual
  Residual-Control   Outer-Iter.   Inner-Iter.     Column Row Layer    Maximum-Head-Change  Column Row Layer    Maximum-Flux-Residual          L2-NORM 
          0                 1           7            51  103     3       0.4621182389E+01      51  103    3         0.9846854153E+05      0.5835262278E+06
          0                 2           6            72   15     2       0.3648263198E+01      72   15    2         0.3214090426E+05      0.7104481015E+05
          0                 3           3            72   15     2      -0.3313495045E+00      59   98    1        -0.9312675191E+04      0.1172266604E+05
          0                 4           2            59   98     1      -0.1573449242E-01      59   98    1        -0.8400619532E+03      0.1012184970E+04
          0                 5           2            59   98     1      -0.1417345953E-02      59   98    1        -0.7559896384E+02      0.9105669492E+02

    ------------------------------------------------
       NWT REQUIRED            5 OUTER ITERATIONS 
       AND A TOTAL OF         20 INNER ITERATIONS.
    ------------------------------------------------

 NO OUTPUT CONTROL FOR STRESS PERIOD   22   TIME STEP    5
 
 SOLVING FOR HEAD 
                                                   Max.-Head-Change                         Max.-Flux-Residual
  Residual-Control   Outer-Iter.   Inner-Iter.     Column Row Layer    Maximum-Head-Change  Column Row Layer    Maximum-Flux-Residual          L2-NORM 
          0                 1           7            51  103     3       0.4517998550E+01      51  103    3         0.9633647945E+05      0.5714901082E+06
          0                 2           6            51  103     3      -0.4124318435E+00      12    8    1        -0.1342744885E+05      0.5937280570E+05
          0                 3           2            68  101     1       0.2480009568E-01      12    8    1         0.1323453326E+04      0.1587833471E+04
          0                 4           1            68  101     1       0.2739060101E-03      14    8    1        -0.9756786585E+01      0.9984884437E+01

    ------------------------------------------------
       NWT REQUIRED            4 OUTER ITERATIONS 
       AND A TOTAL OF         16 INNER ITERATIONS.
    ------------------------------------------------

 NO OUTPUT CONTROL FOR STRESS PERIOD   22   TIME STEP    6
 
 SOLVING FOR HEAD 
                                                   Max.-Head-Change                         Max.-Flux-Residual
  Residual-Control   Outer-Iter.   Inner-Iter.     Column Row Layer    Maximum-Head-Change  Column Row Layer    Maximum-Flux-Residual          L2-NORM 
          0                 1           7            51  103     3       0.4414515804E+01      51  103    3         0.9419073081E+05      0.5637039716E+06
          0                 2           6            70   19     2       0.1483619205E+01      70   17    1        -0.2341041042E+05      0.6504940205E+05
          0                 3           3            70   19     2      -0.1345041722E+00      25   37    1        -0.4159146400E+04      0.4756929497E+04
          0                 4           2            25   37     1      -0.6582821572E-02      25   37    1        -0.3746765400E+03      0.3748913120E+03

    ------------------------------------------------
       NWT REQUIRED            4 OUTER ITERATIONS 
       AND A TOTAL OF         18 INNER ITERATIONS.
    ------------------------------------------------

 NO OUTPUT CONTROL FOR STRESS PERIOD   22   TIME STEP    7
 
 SOLVING FOR HEAD 
                                                   Max.-Head-Change                         Max.-Flux-Residual
  Residual-Control   Outer-Iter.   Inner-Iter.     Column Row Layer    Maximum-Head-Change  Column Row Layer    Maximum-Flux-Residual          L2-NORM 
          0                 1           7            70   19     2       0.4851318070E+01      51  103    3         0.9203842121E+05      0.5566593374E+06
          0                 2           6            70   19     2      -0.4402243684E+00      31   23    2         0.1162204801E+05      0.5955251635E+05
          0                 3           2            25   37     1       0.3019637101E-01      25   37    1         0.8029318697E+03      0.1133405990E+04
          0                 4           1            75   93     1       0.2685228736E-03      14    8    1        -0.1189750725E+02      0.1203306621E+02

    ------------------------------------------------
       NWT REQUIRED            4 OUTER ITERATIONS 
       AND A TOTAL OF         16 INNER ITERATIONS.
    ------------------------------------------------

 NO OUTPUT CONTROL FOR STRESS PERIOD   22   TIME STEP    8
 
 SOLVING FOR HEAD 
                                                   Max.-Head-Change                         Max.-Flux-Residual
  Residual-Control   Outer-Iter.   Inner-Iter.     Column Row Layer    Maximum-Head-Change  Column Row Layer    Maximum-Flux-Residual          L2-NORM 
          0                 1           7            51  103     3       0.4207936275E+01      51  103    3         0.8988634781E+05      0.5523445243E+06
          0                 2           6            66   25     2       0.4479934572E+00      66   25    2         0.1019478565E+05      0.5670092209E+05
          0                 3           2            66   25     2      -0.4072022446E-01      66   25    2        -0.9866939844E+03      0.1180158938E+04
          0                 4           1            14    8     1      -0.1326542951E-03      14    8    1        -0.1197630566E+02      0.1200166074E+02

    ------------------------------------------------
       NWT REQUIRED            4 OUTER ITERATIONS 
       AND A TOTAL OF         16 INNER ITERATIONS.
    ------------------------------------------------

 NO OUTPUT CONTROL FOR STRESS PERIOD   22   TIME STEP    9
 
 SOLVING FOR HEAD 
                                                   Max.-Head-Change                         Max.-Flux-Residual
  Residual-Control   Outer-Iter.   Inner-Iter.     Column Row Layer    Maximum-Head-Change  Column Row Layer    Maximum-Flux-Residual          L2-NORM 
          0                 1           7            51  103     3       0.4105433872E+01      51  103    3         0.8774091945E+05      0.5470028313E+06
          0                 2           6            73   14     2      -0.3858621939E+00      51  103    3        -0.8812544259E+04      0.5611702727E+05
          0                 3           3            73   14     2       0.2171187821E+00      73   14    2         0.8588854250E+04      0.8649831046E+04
          0                 4           2            73   14     2       0.1952898377E-01      73   14    2         0.7725167046E+03      0.7726340644E+03
          0                 5           2            73   14     2       0.1755973095E-02      73   14    2         0.6945512394E+02      0.6945933300E+02

    ------------------------------------------------
       NWT REQUIRED            5 OUTER ITERATIONS 
       AND A TOTAL OF         20 INNER ITERATIONS.
    ------------------------------------------------

 NO OUTPUT CONTROL FOR STRESS PERIOD   22   TIME STEP   10
 
 SOLVING FOR HEAD 
                                                   Max.-Head-Change                         Max.-Flux-Residual
  Residual-Control   Outer-Iter.   Inner-Iter.     Column Row Layer    Maximum-Head-Change  Column Row Layer    Maximum-Flux-Residual          L2-NORM 
          0                 1           7            51  103     3       0.4003817230E+01      51  103    3         0.8560811650E+05      0.5429412669E+06
          0                 2           6            73   14     2       0.3438653206E+01      73   14    2         0.3461255777E+05      0.6589097158E+05
          0                 3           3            73   14     2      -0.3124855870E+00      73   14    2        -0.3450465890E+04      0.3520181815E+04
          0                 4           2            81   61     1       0.1860387805E-02      14    8    1        -0.1275822210E+02      0.1288604156E+02

    ------------------------------------------------
       NWT REQUIRED            4 OUTER ITERATIONS 
       AND A TOTAL OF         18 INNER ITERATIONS.
    ------------------------------------------------

 NO OUTPUT CONTROL FOR STRESS PERIOD   22   TIME STEP   11
 
 SOLVING FOR HEAD 
                                                   Max.-Head-Change                         Max.-Flux-Residual
  Residual-Control   Outer-Iter.   Inner-Iter.     Column Row Layer    Maximum-Head-Change  Column Row Layer    Maximum-Flux-Residual          L2-NORM 
          0                 1           7            51  103     3       0.3903329144E+01      51  103    3         0.8349347281E+05      0.5402919003E+06
          0                 2           6            51  103     3      -0.3559989066E+00      20   23    2         0.1245503316E+05      0.5781987093E+05
          0                 3           2            14    2     1       0.2461931305E-01      14    2    1         0.5982152445E+03      0.9195864951E+03
          0                 4           1            14    8     1      -0.1345033813E-03      14    8    1        -0.1224071375E+02      0.1245443940E+02

    ------------------------------------------------
       NWT REQUIRED            4 OUTER ITERATIONS 
       AND A TOTAL OF         16 INNER ITERATIONS.
    ------------------------------------------------

 OUTPUT CONTROL FOR STRESS PERIOD   22   TIME STEP   12
    SAVE BUDGET
 UBDSV1 SAVING "         STORAGE" ON UNIT  39 AT TIME STEP 12, STRESS PERIOD  22
 UBDSV2 SAVING "   CONSTANT HEAD" ON UNIT  39 AT TIME STEP 12, STRESS PERIOD  22
 UBDSV1 SAVING "FLOW RIGHT FACE " ON UNIT  39 AT TIME STEP 12, STRESS PERIOD  22
 UBDSV1 SAVING "FLOW FRONT FACE " ON UNIT  39 AT TIME STEP 12, STRESS PERIOD  22
 UBDSV1 SAVING "FLOW LOWER FACE " ON UNIT  39 AT TIME STEP 12, STRESS PERIOD  22
 UBDSV4 SAVING "           WELLS" ON UNIT  39 AT TIME STEP 12, STRESS PERIOD  22
 UBDSV3 SAVING "              ET" ON UNIT  39 AT TIME STEP 12, STRESS PERIOD  22
 UBDSV3 SAVING "        RECHARGE" ON UNIT  39 AT TIME STEP 12, STRESS PERIOD  22
1
  VOLUMETRIC BUDGET FOR ENTIRE MODEL AT END OF TIME STEP   12, STRESS PERIOD  22
  ------------------------------------------------------------------------------

     CUMULATIVE VOLUMES      L**3       RATES FOR THIS TIME STEP      L**3/T
     ------------------                 ------------------------

           IN:                                      IN:
           ---                                      ---
             STORAGE =114793570304.0000               STORAGE =    23396264.0000
       CONSTANT HEAD = 10425621504.0000         CONSTANT HEAD =     1430404.1250
               WELLS =  9849243648.0000                 WELLS =     1225642.0000
                  ET =           0.0000                    ET =           0.0000
            RECHARGE =116823023616.0000              RECHARGE =    21158826.0000

            TOTAL IN =251891449856.0000              TOTAL IN =    47211136.0000

          OUT:                                     OUT:
          ----                                     ----
             STORAGE = 12955467776.0000               STORAGE =     4124496.7500
       CONSTANT HEAD = 29104906240.0000         CONSTANT HEAD =     3687131.7500
               WELLS =201632088064.0000                 WELLS =    38677172.0000
                  ET =  8199052800.0000                    ET =      722331.9375
            RECHARGE =           0.0000              RECHARGE =           0.0000

           TOTAL OUT =251891499008.0000             TOTAL OUT =    47211132.0000

            IN - OUT =      -49152.0000              IN - OUT =           4.0000

 PERCENT DISCREPANCY =          -0.00     PERCENT DISCREPANCY =           0.00






         TIME SUMMARY AT END OF TIME STEP   12 IN STRESS PERIOD   22
                    SECONDS     MINUTES      HOURS       DAYS        YEARS
                    -----------------------------------------------------------
   TIME STEP LENGTH 2.62800E+06  43800.      730.00      30.417     8.32763E-02
 STRESS PERIOD TIME 3.15360E+07 5.25600E+05  8760.0      365.00     0.99932    
         TOTAL TIME 6.94309E+08 1.15718E+07 1.92864E+05  8036.0      22.001    
1
1
                            STRESS PERIOD NO.   23, LENGTH =   365.0000    
                            -----------------------------------------------

                              NUMBER OF TIME STEPS =    12

                               MULTIPLIER FOR DELT =     1.000

                            INITIAL TIME STEP SIZE =   30.41667    

   1884 WELLS

 REUSING SURF FROM LAST STRESS PERIOD

 REUSING EVTR FROM LAST STRESS PERIOD

 REUSING EXDP FROM LAST STRESS PERIOD



                           RECHARGE
 READING ON UNIT   16 WITH FORMAT: (15F5.0)            


     63 TIME-VARIANT SPECIFIED-HEAD CELLS
 
 SOLVING FOR HEAD 
                                                   Max.-Head-Change                         Max.-Flux-Residual
  Residual-Control   Outer-Iter.   Inner-Iter.     Column Row Layer    Maximum-Head-Change  Column Row Layer    Maximum-Flux-Residual          L2-NORM 
          0                 1           8            92   77     2      -0.4505934425E+02      59   85    3        -0.4311739693E+06      0.1021829564E+07
          0                 2           6            65    2     2      -0.7116123001E+02      59   85    3         0.1558783937E+06      0.1854526080E+06
          0                 3           3            65    2     2       0.2208283663E+01      65    2    3        -0.2825000568E+04      0.3764201120E+04
          0                 4           2            65    2     2       0.1533067058E+00      65    2    2         0.6817159034E+02      0.7454322761E+02
          0                 5           2            65    2     2       0.8820625086E-02      65    2    3         0.6097410887E+01      0.7848668627E+01

    ------------------------------------------------
       NWT REQUIRED            5 OUTER ITERATIONS 
       AND A TOTAL OF         21 INNER ITERATIONS.
    ------------------------------------------------

 NO OUTPUT CONTROL FOR STRESS PERIOD   23   TIME STEP    1
 
 SOLVING FOR HEAD 
                                                   Max.-Head-Change                         Max.-Flux-Residual
  Residual-Control   Outer-Iter.   Inner-Iter.     Column Row Layer    Maximum-Head-Change  Column Row Layer    Maximum-Flux-Residual          L2-NORM 
          0                 1           7            66    1     2      -0.4874950405E+02      59   85    2        -0.1200146366E+06      0.7161163126E+06
          0                 2           6            58   99     2      -0.1949117656E+01      34   24    2         0.1275034076E+05      0.7390410309E+05
          0                 3           5            58   99     2       0.2596470457E+00      58   99    2         0.2289441552E+04      0.2712572764E+04
          0                 4           2            65    2     2       0.5593271079E-02      59   99    2        -0.5711814402E+02      0.6019153145E+02

    ------------------------------------------------
       NWT REQUIRED            4 OUTER ITERATIONS 
       AND A TOTAL OF         20 INNER ITERATIONS.
    ------------------------------------------------

 NO OUTPUT CONTROL FOR STRESS PERIOD   23   TIME STEP    2
 
 SOLVING FOR HEAD 
                                                   Max.-Head-Change                         Max.-Flux-Residual
  Residual-Control   Outer-Iter.   Inner-Iter.     Column Row Layer    Maximum-Head-Change  Column Row Layer    Maximum-Flux-Residual          L2-NORM 
          0                 1           7            59   85     2      -0.4019134612E+01      70   19    1        -0.1055260140E+06      0.6528800414E+06
          0                 2           6            65    6     2      -0.3174197561E+01      69   21    1        -0.1318167004E+05      0.6752646913E+05
          0                 3           2            69   21     1       0.2272378710E+00      69   21    1         0.1237477189E+04      0.1580742704E+04
          0                 4           2            65    6     2       0.6551995936E-02      69   21    1         0.6878289998E+01      0.1000176552E+02

    ------------------------------------------------
       NWT REQUIRED            4 OUTER ITERATIONS 
       AND A TOTAL OF         17 INNER ITERATIONS.
    ------------------------------------------------

 NO OUTPUT CONTROL FOR STRESS PERIOD   23   TIME STEP    3
 
 SOLVING FOR HEAD 
                                                   Max.-Head-Change                         Max.-Flux-Residual
  Residual-Control   Outer-Iter.   Inner-Iter.     Column Row Layer    Maximum-Head-Change  Column Row Layer    Maximum-Flux-Residual          L2-NORM 
          0                 1           7            65    6     2      -0.4215518017E+02      70   19    1        -0.9451604517E+05      0.6174553787E+06
          0                 2           6            65    3     2      -0.5533155779E+01      59   94    3         0.2175919336E+05      0.6722427351E+05
          0                 3           2            65    3     2       0.1816044464E+00      13    9    1         0.9545737464E+03      0.1103228415E+04
          0                 4           2            65    3     2       0.1053032458E-01      14    8    1        -0.5346175253E+01      0.8555738412E+01
          0                 5           1            65    3     2       0.6102749444E-03      14    8    1        -0.3696021438E+00      0.5739794855E+00

    ------------------------------------------------
       NWT REQUIRED            5 OUTER ITERATIONS 
       AND A TOTAL OF         18 INNER ITERATIONS.
    ------------------------------------------------

 NO OUTPUT CONTROL FOR STRESS PERIOD   23   TIME STEP    4
 
 SOLVING FOR HEAD 
                                                   Max.-Head-Change                         Max.-Flux-Residual
  Residual-Control   Outer-Iter.   Inner-Iter.     Column Row Layer    Maximum-Head-Change  Column Row Layer    Maximum-Flux-Residual          L2-NORM 
          0                 1           7            65    3     2      -0.3629011173E+02      70   19    1        -0.8502871034E+05      0.5951383050E+06
          0                 2           6            65    3     2       0.4153835285E+01      58  103    2         0.1223895368E+05      0.6196882518E+05
          0                 3           2            65    3     2       0.2080331738E+00      34   24    1         0.9036558671E+03      0.1183984757E+04
          0                 4           2            65    3     2       0.1041931019E-01      14    8    1        -0.5603609830E+01      0.8336242578E+01
          0                 5           1            65    3     2       0.5113666929E-03      14    8    1        -0.3995499313E+00      0.6644417974E+00

    ------------------------------------------------
       NWT REQUIRED            5 OUTER ITERATIONS 
       AND A TOTAL OF         18 INNER ITERATIONS.
    ------------------------------------------------

 NO OUTPUT CONTROL FOR STRESS PERIOD   23   TIME STEP    5
 
 SOLVING FOR HEAD 
                                                   Max.-Head-Change                         Max.-Flux-Residual
  Residual-Control   Outer-Iter.   Inner-Iter.     Column Row Layer    Maximum-Head-Change  Column Row Layer    Maximum-Flux-Residual          L2-NORM 
          0                 1           7            51  103     3       0.3368020260E+01      70   19    1        -0.7680056027E+05      0.5774961180E+06
          0                 2           6            65    5     2      -0.2929414720E+02      65    5    2        -0.1405537016E+05      0.6185067649E+05
          0                 3           2            65    5     2       0.2604040640E+01      65    5    2         0.1530611426E+04      0.2020511971E+04
          0                 4           2            65    5     2       0.1132426373E+00      60   87    1        -0.7031599861E+02      0.1230491806E+03
          0                 5           2            65    5     2       0.4894853301E-02      60   87    1        -0.6335908532E+01      0.9459465487E+01

    ------------------------------------------------
       NWT REQUIRED            5 OUTER ITERATIONS 
       AND A TOTAL OF         19 INNER ITERATIONS.
    ------------------------------------------------

 NO OUTPUT CONTROL FOR STRESS PERIOD   23   TIME STEP    6
 
 SOLVING FOR HEAD 
                                                   Max.-Head-Change                         Max.-Flux-Residual
  Residual-Control   Outer-Iter.   Inner-Iter.     Column Row Layer    Maximum-Head-Change  Column Row Layer    Maximum-Flux-Residual          L2-NORM 
          0                 1           7            65    5     2      -0.1423268261E+02      51  103    3         0.7025797367E+05      0.5641064736E+06
          0                 2           6            66    4     2      -0.5176614051E+01      70   19    2         0.1348389844E+05      0.6164817528E+05
          0                 3           2            66    4     2       0.1725178988E+00      66   25    1         0.1210784373E+04      0.1879787645E+04
          0                 4           2            66    4     2       0.1000431647E-01      66    4    2         0.4370955583E+01      0.7323768795E+01
          0                 5           1            66    4     2       0.5804683488E-03      14    8    1        -0.3122990429E+00      0.4430941002E+00

    ------------------------------------------------
       NWT REQUIRED            5 OUTER ITERATIONS 
       AND A TOTAL OF         18 INNER ITERATIONS.
    ------------------------------------------------

 NO OUTPUT CONTROL FOR STRESS PERIOD   23   TIME STEP    7
 
 SOLVING FOR HEAD 
                                                   Max.-Head-Change                         Max.-Flux-Residual
  Residual-Control   Outer-Iter.   Inner-Iter.     Column Row Layer    Maximum-Head-Change  Column Row Layer    Maximum-Flux-Residual          L2-NORM 
          0                 1           7            66    4     2      -0.5756789023E+01      51  103    3         0.6840822849E+05      0.5540512818E+06
          0                 2           6            18   33     2      -0.7224460542E+00      46   30    2         0.7675954807E+04      0.5705896364E+05
          0                 3           3            18   33     2       0.1500423342E+00      18   33    2         0.1594362760E+04      0.2143661483E+04
          0                 4           2            19   33     2      -0.1664523131E-02      19   33    2        -0.6149303652E+02      0.8725536569E+02

    ------------------------------------------------
       NWT REQUIRED            4 OUTER ITERATIONS 
       AND A TOTAL OF         18 INNER ITERATIONS.
    ------------------------------------------------

 NO OUTPUT CONTROL FOR STRESS PERIOD   23   TIME STEP    8
 
 SOLVING FOR HEAD 
                                                   Max.-Head-Change                         Max.-Flux-Residual
  Residual-Control   Outer-Iter.   Inner-Iter.     Column Row Layer    Maximum-Head-Change  Column Row Layer    Maximum-Flux-Residual          L2-NORM 
          0                 1           7            51  103     3       0.3108486724E+01      51  103    3         0.6660589075E+05      0.5454985858E+06
          0                 2           6            59   94     2      -0.2292493508E+01      59   94    2        -0.1829960165E+05      0.6023129232E+05
          0                 3           3            59   94     2       0.1933186228E+00      59   94    2         0.1765122394E+04      0.2137766177E+04
          0                 4           2            13    2     1      -0.1648521578E-02      13    2    1        -0.8950056966E+02      0.9166410888E+02

    ------------------------------------------------
       NWT REQUIRED            4 OUTER ITERATIONS 
       AND A TOTAL OF         18 INNER ITERATIONS.
    ------------------------------------------------

 NO OUTPUT CONTROL FOR STRESS PERIOD   23   TIME STEP    9
 
 SOLVING FOR HEAD 
                                                   Max.-Head-Change                         Max.-Flux-Residual
  Residual-Control   Outer-Iter.   Inner-Iter.     Column Row Layer    Maximum-Head-Change  Column Row Layer    Maximum-Flux-Residual          L2-NORM 
          0                 1           7            73   14     1      -0.4743087465E+01      51  103    3         0.6485211896E+05      0.5387228196E+06
          0                 2           6            58   98     2      -0.1349709576E+01      22   50    3         0.8704059990E+04      0.5694349337E+05
          0                 3           3            58   98     2       0.1169607865E+00      22   50    2        -0.4604667947E+04      0.5371812366E+04
          0                 4           2            22   50     2      -0.8334725840E-02      22   50    2        -0.4152190336E+03      0.4679125023E+03

    ------------------------------------------------
       NWT REQUIRED            4 OUTER ITERATIONS 
       AND A TOTAL OF         18 INNER ITERATIONS.
    ------------------------------------------------

 NO OUTPUT CONTROL FOR STRESS PERIOD   23   TIME STEP   10
 
 SOLVING FOR HEAD 
                                                   Max.-Head-Change                         Max.-Flux-Residual
  Residual-Control   Outer-Iter.   Inner-Iter.     Column Row Layer    Maximum-Head-Change  Column Row Layer    Maximum-Flux-Residual          L2-NORM 
          0                 1           7            59   85     1      -0.5160988351E+01      51  103    3         0.6314767686E+05      0.5333882592E+06
          0                 2           6            20   43     2      -0.1203338004E+01      60   85    1        -0.1842042092E+05      0.6394993045E+05
          0                 3           3            60   86     1      -0.1580607013E+00      60   86    1        -0.9399022768E+04      0.1007691466E+05
          0                 4           2            60   86     1      -0.1429266570E-01      60   86    1        -0.8491593781E+03      0.8787680923E+03
          0                 5           2            60   86     1      -0.1287069007E-02      60   86    1        -0.7639830244E+02      0.7904972565E+02

    ------------------------------------------------
       NWT REQUIRED            5 OUTER ITERATIONS 
       AND A TOTAL OF         20 INNER ITERATIONS.
    ------------------------------------------------

 NO OUTPUT CONTROL FOR STRESS PERIOD   23   TIME STEP   11
 
 SOLVING FOR HEAD 
                                                   Max.-Head-Change                         Max.-Flux-Residual
  Residual-Control   Outer-Iter.   Inner-Iter.     Column Row Layer    Maximum-Head-Change  Column Row Layer    Maximum-Flux-Residual          L2-NORM 
          0                 1           7            51  103     3       0.2870235740E+01      51  103    3         0.6149302203E+05      0.5292410265E+06
          0                 2           6            22   47     2      -0.7646930763E+00      58   87    3         0.1621748806E+05      0.6181426783E+05
          0                 3           3            22   47     2       0.6747474632E-01      60   86    1         0.1333736948E+04      0.2084314495E+04
          0                 4           1            22   47     2       0.1931548306E-03      60   86    1         0.1592516094E+01      0.2514843087E+01

    ------------------------------------------------
       NWT REQUIRED            4 OUTER ITERATIONS 
       AND A TOTAL OF         17 INNER ITERATIONS.
    ------------------------------------------------

 OUTPUT CONTROL FOR STRESS PERIOD   23   TIME STEP   12
    SAVE BUDGET
 UBDSV1 SAVING "         STORAGE" ON UNIT  39 AT TIME STEP 12, STRESS PERIOD  23
 UBDSV2 SAVING "   CONSTANT HEAD" ON UNIT  39 AT TIME STEP 12, STRESS PERIOD  23
 UBDSV1 SAVING "FLOW RIGHT FACE " ON UNIT  39 AT TIME STEP 12, STRESS PERIOD  23
 UBDSV1 SAVING "FLOW FRONT FACE " ON UNIT  39 AT TIME STEP 12, STRESS PERIOD  23
 UBDSV1 SAVING "FLOW LOWER FACE " ON UNIT  39 AT TIME STEP 12, STRESS PERIOD  23
 UBDSV4 SAVING "           WELLS" ON UNIT  39 AT TIME STEP 12, STRESS PERIOD  23
 UBDSV3 SAVING "              ET" ON UNIT  39 AT TIME STEP 12, STRESS PERIOD  23
 UBDSV3 SAVING "        RECHARGE" ON UNIT  39 AT TIME STEP 12, STRESS PERIOD  23
1
  VOLUMETRIC BUDGET FOR ENTIRE MODEL AT END OF TIME STEP   12, STRESS PERIOD  23
  ------------------------------------------------------------------------------

     CUMULATIVE VOLUMES      L**3       RATES FOR THIS TIME STEP      L**3/T
     ------------------                 ------------------------

           IN:                                      IN:
           ---                                      ---
             STORAGE =125041197056.0000               STORAGE =    27455032.0000
       CONSTANT HEAD = 10935334912.0000         CONSTANT HEAD =     1377890.0000
               WELLS = 10296600576.0000                 WELLS =     1225642.0000
                  ET =           0.0000                    ET =           0.0000
            RECHARGE =122482089984.0000              RECHARGE =    15504236.0000

            TOTAL IN =268755222528.0000              TOTAL IN =    45562800.0000

          OUT:                                     OUT:
          ----                                     ----
             STORAGE = 13487087616.0000               STORAGE =      903591.8125
       CONSTANT HEAD = 30428045312.0000         CONSTANT HEAD =     3604805.2500
               WELLS =216418435072.0000                 WELLS =    40509004.0000
                  ET =  8421690368.0000                    ET =      545396.9375
            RECHARGE =           0.0000              RECHARGE =           0.0000

           TOTAL OUT =268755238912.0000             TOTAL OUT =    45562796.0000

            IN - OUT =      -16384.0000              IN - OUT =           4.0000

 PERCENT DISCREPANCY =          -0.00     PERCENT DISCREPANCY =           0.00






         TIME SUMMARY AT END OF TIME STEP   12 IN STRESS PERIOD   23
                    SECONDS     MINUTES      HOURS       DAYS        YEARS
                    -----------------------------------------------------------
   TIME STEP LENGTH 2.62800E+06  43800.      730.00      30.417     8.32763E-02
 STRESS PERIOD TIME 3.15360E+07 5.25600E+05  8760.0      365.00     0.99932    
         TOTAL TIME 7.25846E+08 1.20974E+07 2.01624E+05  8401.0      23.001    
1
1
                            STRESS PERIOD NO.   24, LENGTH =   365.0000    
                            -----------------------------------------------

                              NUMBER OF TIME STEPS =    12

                               MULTIPLIER FOR DELT =     1.000

                            INITIAL TIME STEP SIZE =   30.41667    

   1937 WELLS

 REUSING SURF FROM LAST STRESS PERIOD

 REUSING EVTR FROM LAST STRESS PERIOD

 REUSING EXDP FROM LAST STRESS PERIOD



                           RECHARGE
 READING ON UNIT   16 WITH FORMAT: (15F5.0)            


     63 TIME-VARIANT SPECIFIED-HEAD CELLS
 
 SOLVING FOR HEAD 
                                                   Max.-Head-Change                         Max.-Flux-Residual
  Residual-Control   Outer-Iter.   Inner-Iter.     Column Row Layer    Maximum-Head-Change  Column Row Layer    Maximum-Flux-Residual          L2-NORM 
          0                 1           7            92   77     2       0.8782119055E+02      58   66    2        -0.4600079281E+06      0.9188939720E+06
          0                 2           6            92   77     2       0.3241769771E+02      58   66    2         0.4600083331E+05      0.9837581783E+05
          0                 3           3            92   77     2      -0.2259626331E+02      92   77    2        -0.6806930023E+06      0.6814714999E+06
          0                 4           2            91   77     2       0.5723265792E+01      92   77    2        -0.7136144585E+04      0.8672388794E+04
          0                 5           2            91   77     2       0.9005304034E+00      91   77    2         0.3983255273E+03      0.5321263643E+03
          0                 6           2            91   77     2       0.1379214390E+00      91   77    2         0.6095269424E+02      0.6883585328E+02
          0                 7           2            91   77     2       0.2112478334E-01      91   77    2         0.9335135324E+01      0.9839150243E+01
          0                 8           2            91   77     2       0.3233974883E-02      91   77    2         0.1428967389E+01      0.1482197049E+01

    ------------------------------------------------
       NWT REQUIRED            8 OUTER ITERATIONS 
       AND A TOTAL OF         26 INNER ITERATIONS.
    ------------------------------------------------

 NO OUTPUT CONTROL FOR STRESS PERIOD   24   TIME STEP    1
 
 SOLVING FOR HEAD 
                                                   Max.-Head-Change                         Max.-Flux-Residual
  Residual-Control   Outer-Iter.   Inner-Iter.     Column Row Layer    Maximum-Head-Change  Column Row Layer    Maximum-Flux-Residual          L2-NORM 
          0                 1           7            58   66     1      -0.4916233737E+01      58   66    1        -0.2317112581E+06      0.6245811628E+06
          0                 2           6            58   87     2      -0.7408656568E+00      58   66    1         0.2133522338E+05      0.6766856518E+05
          0                 3           2            58   87     2       0.6535483225E-01      22   23    1         0.1387877319E+04      0.2834048817E+04
          0                 4           2            31   22     1      -0.1498818599E-02      31   22    1        -0.1186638846E+03      0.1215961771E+03

    ------------------------------------------------
       NWT REQUIRED            4 OUTER ITERATIONS 
       AND A TOTAL OF         17 INNER ITERATIONS.
    ------------------------------------------------

 NO OUTPUT CONTROL FOR STRESS PERIOD   24   TIME STEP    2
 
 SOLVING FOR HEAD 
                                                   Max.-Head-Change                         Max.-Flux-Residual
  Residual-Control   Outer-Iter.   Inner-Iter.     Column Row Layer    Maximum-Head-Change  Column Row Layer    Maximum-Flux-Residual          L2-NORM 
          0                 1           7            58   66     1      -0.3311638098E+01      58   66    1        -0.1442556296E+06      0.5481320301E+06
          0                 2           6            31   22     1      -0.3926064017E+00      58   66    1         0.1360908059E+05      0.6087924467E+05
          0                 3           2            26   39     1      -0.7293715319E-01      19   19    1        -0.5271016413E+04      0.6919091293E+04
          0                 4           2            26   39     1      -0.6569736270E-02      19   19    1        -0.4754524885E+03      0.6032300763E+03

    ------------------------------------------------
       NWT REQUIRED            4 OUTER ITERATIONS 
       AND A TOTAL OF         17 INNER ITERATIONS.
    ------------------------------------------------

 NO OUTPUT CONTROL FOR STRESS PERIOD   24   TIME STEP    3
 
 SOLVING FOR HEAD 
                                                   Max.-Head-Change                         Max.-Flux-Residual
  Residual-Control   Outer-Iter.   Inner-Iter.     Column Row Layer    Maximum-Head-Change  Column Row Layer    Maximum-Flux-Residual          L2-NORM 
          0                 1           7            58   66     1      -0.2394045313E+01      58   66    1        -0.9697629314E+05      0.5143936748E+06
          0                 2           6            26   39     1      -0.3615516643E+00      26   31    2         0.1099926225E+05      0.5456917381E+05
          0                 3           2            26   39     1       0.3241200911E-01      19   19    1         0.8923951067E+03      0.1636853600E+04
          0                 4           1            20   71     1      -0.8838786215E-03      20   71    2        -0.3842177759E+02      0.3857307398E+02

    ------------------------------------------------
       NWT REQUIRED            4 OUTER ITERATIONS 
       AND A TOTAL OF         16 INNER ITERATIONS.
    ------------------------------------------------

 NO OUTPUT CONTROL FOR STRESS PERIOD   24   TIME STEP    4
 
 SOLVING FOR HEAD 
                                                   Max.-Head-Change                         Max.-Flux-Residual
  Residual-Control   Outer-Iter.   Inner-Iter.     Column Row Layer    Maximum-Head-Change  Column Row Layer    Maximum-Flux-Residual          L2-NORM 
          0                 1           7            51  103     3       0.2161348562E+01      58   66    1        -0.7007667874E+05      0.4963802890E+06
          0                 2           6            26   31     1      -0.4724420246E+00      60   84    2         0.1763392837E+05      0.5673100254E+05
          0                 3           2            26   31     1       0.4177614537E-01      26   31    1         0.8564346127E+03      0.9873886761E+03
          0                 4           1            26   31     1       0.4208984224E-03      26   31    1         0.7526178375E+01      0.1118867506E+02

    ------------------------------------------------
       NWT REQUIRED            4 OUTER ITERATIONS 
       AND A TOTAL OF         16 INNER ITERATIONS.
    ------------------------------------------------

 NO OUTPUT CONTROL FOR STRESS PERIOD   24   TIME STEP    5
 
 SOLVING FOR HEAD 
                                                   Max.-Head-Change                         Max.-Flux-Residual
  Residual-Control   Outer-Iter.   Inner-Iter.     Column Row Layer    Maximum-Head-Change  Column Row Layer    Maximum-Flux-Residual          L2-NORM 
          0                 1           7            51  103     3       0.2111064790E+01      58   66    1        -0.5389653083E+05      0.4850399541E+06
          0                 2           6            18   38     2      -0.3167530222E+01      18   38    2        -0.1629377712E+05      0.5533352973E+05
          0                 3           3            18   38     2       0.2724779572E+00      18   38    2         0.1630168573E+04      0.2415063494E+04
          0                 4           2            18   38     2       0.5021214009E-02      18   38    2         0.2792378358E+02      0.3620018282E+02

    ------------------------------------------------
       NWT REQUIRED            4 OUTER ITERATIONS 
       AND A TOTAL OF         18 INNER ITERATIONS.
    ------------------------------------------------

 NO OUTPUT CONTROL FOR STRESS PERIOD   24   TIME STEP    6
 
 SOLVING FOR HEAD 
                                                   Max.-Head-Change                         Max.-Flux-Residual
  Residual-Control   Outer-Iter.   Inner-Iter.     Column Row Layer    Maximum-Head-Change  Column Row Layer    Maximum-Flux-Residual          L2-NORM 
          0                 1           7            51  103     3       0.2062527638E+01      51  103    3         0.4405714843E+05      0.4774152514E+06
          0                 2           6            26   15     1      -0.1978140939E+00      26   15    1        -0.4555677001E+04      0.4803792765E+05
          0                 3           2            26   15     1       0.1774775247E-01      26   15    1         0.4476935902E+03      0.5964983194E+03
          0                 4           1            90   76     2      -0.1393869537E-03      77   46    2        -0.2930897194E+03      0.2930936646E+03

    ------------------------------------------------
       NWT REQUIRED            4 OUTER ITERATIONS 
       AND A TOTAL OF         16 INNER ITERATIONS.
    ------------------------------------------------

 NO OUTPUT CONTROL FOR STRESS PERIOD   24   TIME STEP    7
 
 SOLVING FOR HEAD 
                                                   Max.-Head-Change                         Max.-Flux-Residual
  Residual-Control   Outer-Iter.   Inner-Iter.     Column Row Layer    Maximum-Head-Change  Column Row Layer    Maximum-Flux-Residual          L2-NORM 
          0                 1           7            33   33     1      -0.2159476192E+01      51  103    3         0.4304524568E+05      0.4723507345E+06
          0                 2           5            88   67     1      -0.6567296553E+00      88   67    1        -0.2669265982E+05      0.5526320081E+05
          0                 3           2            77   46     2      -0.4607791057E-01      22   48    2         0.3784516989E+03      0.5264468687E+03
          0                 4           1            87   67     1      -0.1363457856E-03      59   93    3        -0.6102273017E+00      0.2176261313E+01

    ------------------------------------------------
       NWT REQUIRED            4 OUTER ITERATIONS 
       AND A TOTAL OF         15 INNER ITERATIONS.
    ------------------------------------------------

 NO OUTPUT CONTROL FOR STRESS PERIOD   24   TIME STEP    8
 
 SOLVING FOR HEAD 
                                                   Max.-Head-Change                         Max.-Flux-Residual
  Residual-Control   Outer-Iter.   Inner-Iter.     Column Row Layer    Maximum-Head-Change  Column Row Layer    Maximum-Flux-Residual          L2-NORM 
          0                 1           7            51  103     3       0.1970437729E+01      51  103    3         0.4206838738E+05      0.4681339898E+06
          0                 2           6            51  103     3      -0.1792590333E+00      30   21    2         0.1306187338E+05      0.5053062227E+05
          0                 3           3            30   21     1      -0.5803468052E-01      30   21    1        -0.4639111694E+04      0.4665385439E+04
          0                 4           2            30   21     1      -0.5228207031E-02      30   21    1        -0.4180762842E+03      0.4183672294E+03

    ------------------------------------------------
       NWT REQUIRED            4 OUTER ITERATIONS 
       AND A TOTAL OF         18 INNER ITERATIONS.
    ------------------------------------------------

 NO OUTPUT CONTROL FOR STRESS PERIOD   24   TIME STEP    9
 
 SOLVING FOR HEAD 
                                                   Max.-Head-Change                         Max.-Flux-Residual
  Residual-Control   Outer-Iter.   Inner-Iter.     Column Row Layer    Maximum-Head-Change  Column Row Layer    Maximum-Flux-Residual          L2-NORM 
          0                 1           7            51  103     3       0.1926757819E+01      51  103    3         0.4112524254E+05      0.4640199640E+06
          0                 2           6            58   86     2      -0.1567616309E+01      58   86    2        -0.1148097608E+05      0.5165672868E+05
          0                 3           2            58   86     2       0.1306495505E+00      58   86    2         0.1104081691E+04      0.2267732708E+04
          0                 4           2            58   86     1       0.1045923806E-02      58   86    1         0.3964496598E+01      0.7317248871E+01

    ------------------------------------------------
       NWT REQUIRED            4 OUTER ITERATIONS 
       AND A TOTAL OF         17 INNER ITERATIONS.
    ------------------------------------------------

 NO OUTPUT CONTROL FOR STRESS PERIOD   24   TIME STEP   10
 
 SOLVING FOR HEAD 
                                                   Max.-Head-Change                         Max.-Flux-Residual
  Residual-Control   Outer-Iter.   Inner-Iter.     Column Row Layer    Maximum-Head-Change  Column Row Layer    Maximum-Flux-Residual          L2-NORM 
          0                 1           7            51  103     3       0.1884570475E+01      51  103    3         0.4021448291E+05      0.4615756595E+06
          0                 2           6            27   32     1      -0.5269524280E+00      27   32    1        -0.8697927372E+04      0.4920664088E+05
          0                 3           3            26   36     1      -0.5508268155E-01      26   36    1        -0.3138909853E+04      0.3346466941E+04
          0                 4           2            26   36     1      -0.4964678297E-02      26   36    1        -0.2827974720E+03      0.2830194624E+03

    ------------------------------------------------
       NWT REQUIRED            4 OUTER ITERATIONS 
       AND A TOTAL OF         18 INNER ITERATIONS.
    ------------------------------------------------

 NO OUTPUT CONTROL FOR STRESS PERIOD   24   TIME STEP   11
 
 SOLVING FOR HEAD 
                                                   Max.-Head-Change                         Max.-Flux-Residual
  Residual-Control   Outer-Iter.   Inner-Iter.     Column Row Layer    Maximum-Head-Change  Column Row Layer    Maximum-Flux-Residual          L2-NORM 
          0                 1           7            51  103     3       0.1843814600E+01      51  103    3         0.3933481375E+05      0.4593197301E+06
          0                 2           6            72   15     1      -0.2462882239E+01      72   15    1        -0.1346568114E+05      0.5373618213E+05
          0                 3           3            72   15     1       0.2122898601E+00      26   30    1        -0.2799877281E+04      0.3287985217E+04
          0                 4           2            26   30     1      -0.4888745208E-02      26   30    1        -0.2522926820E+03      0.2795705792E+03

    ------------------------------------------------
       NWT REQUIRED            4 OUTER ITERATIONS 
       AND A TOTAL OF         18 INNER ITERATIONS.
    ------------------------------------------------

 OUTPUT CONTROL FOR STRESS PERIOD   24   TIME STEP   12
    SAVE BUDGET
 UBDSV1 SAVING "         STORAGE" ON UNIT  39 AT TIME STEP 12, STRESS PERIOD  24
 UBDSV2 SAVING "   CONSTANT HEAD" ON UNIT  39 AT TIME STEP 12, STRESS PERIOD  24
 UBDSV1 SAVING "FLOW RIGHT FACE " ON UNIT  39 AT TIME STEP 12, STRESS PERIOD  24
 UBDSV1 SAVING "FLOW FRONT FACE " ON UNIT  39 AT TIME STEP 12, STRESS PERIOD  24
 UBDSV1 SAVING "FLOW LOWER FACE " ON UNIT  39 AT TIME STEP 12, STRESS PERIOD  24
 UBDSV4 SAVING "           WELLS" ON UNIT  39 AT TIME STEP 12, STRESS PERIOD  24
 UBDSV3 SAVING "              ET" ON UNIT  39 AT TIME STEP 12, STRESS PERIOD  24
 UBDSV3 SAVING "        RECHARGE" ON UNIT  39 AT TIME STEP 12, STRESS PERIOD  24

 INTERPOLATION FOR HEAD OBS# 7916, ID 1427-25-27   CHANGED BECAUSE AT LEAST ONE
 NEIGHBORING CELL REQUIRED FOR INTERPOLATION IS DRY OR INACTIVE (OBS2BAS7SE)
1
  VOLUMETRIC BUDGET FOR ENTIRE MODEL AT END OF TIME STEP   12, STRESS PERIOD  24
  ------------------------------------------------------------------------------

     CUMULATIVE VOLUMES      L**3       RATES FOR THIS TIME STEP      L**3/T
     ------------------                 ------------------------

           IN:                                      IN:
           ---                                      ---
             STORAGE =133776703488.0000               STORAGE =    23433984.0000
       CONSTANT HEAD = 11449897984.0000         CONSTANT HEAD =     1427352.6250
               WELLS = 10743957504.0000                 WELLS =     1225642.0000
                  ET =           0.0000                    ET =           0.0000
            RECHARGE =129683841024.0000              RECHARGE =    19730916.0000

            TOTAL IN =285654384640.0000              TOTAL IN =    45817896.0000

          OUT:                                     OUT:
          ----                                     ----
             STORAGE = 14176230400.0000               STORAGE =     1341922.1250
       CONSTANT HEAD = 31770077184.0000         CONSTANT HEAD =     3688899.5000
               WELLS =231036043264.0000                 WELLS =    40048184.0000
                  ET =  8672160768.0000                    ET =      738794.6250
            RECHARGE =           0.0000              RECHARGE =           0.0000

           TOTAL OUT =285654515712.0000             TOTAL OUT =    45817804.0000

            IN - OUT =     -131072.0000              IN - OUT =          92.0000

 PERCENT DISCREPANCY =          -0.00     PERCENT DISCREPANCY =           0.00






         TIME SUMMARY AT END OF TIME STEP   12 IN STRESS PERIOD   24
                    SECONDS     MINUTES      HOURS       DAYS        YEARS
                    -----------------------------------------------------------
   TIME STEP LENGTH 2.62800E+06  43800.      730.00      30.417     8.32763E-02
 STRESS PERIOD TIME 3.15360E+07 5.25600E+05  8760.0      365.00     0.99932    
         TOTAL TIME 7.57382E+08 1.26230E+07 2.10384E+05  8766.0      24.000    
1
1
                            STRESS PERIOD NO.   25, LENGTH =   366.0000    
                            -----------------------------------------------

                              NUMBER OF TIME STEPS =    12

                               MULTIPLIER FOR DELT =     1.000

                            INITIAL TIME STEP SIZE =   30.50000    

   1959 WELLS

 REUSING SURF FROM LAST STRESS PERIOD

 REUSING EVTR FROM LAST STRESS PERIOD

 REUSING EXDP FROM LAST STRESS PERIOD



                           RECHARGE
 READING ON UNIT   16 WITH FORMAT: (15F5.0)            


     63 TIME-VARIANT SPECIFIED-HEAD CELLS
 
 SOLVING FOR HEAD 
                                                   Max.-Head-Change                         Max.-Flux-Residual
  Residual-Control   Outer-Iter.   Inner-Iter.     Column Row Layer    Maximum-Head-Change  Column Row Layer    Maximum-Flux-Residual          L2-NORM 
          0                 1           8            65    2     2       0.9176076394E+02      58   66    2         0.4599802302E+06      0.1067215170E+07
          0                 2           6            72   15     1      -0.1712973663E+02      72   15    1        -0.5792783327E+06      0.6933543885E+06
          0                 3           2            65    6     2      -0.8619871504E+00      72   15    1        -0.2713092059E+04      0.4414700380E+04
          0                 4           2            66    5     2       0.8773508887E-01      78   65    2        -0.1070344670E+04      0.1079230241E+04
          0                 5           2            66    5     2       0.1320491543E-01      78   65    2        -0.1069330180E+04      0.1069421318E+04
          0                 6           2            66    5     2       0.1986013071E-02      78   65    2        -0.1068286966E+04      0.1068289974E+04
          0                 7           1            66    5     2       0.2983638029E-03      78   65    2        -0.1067212098E+04      0.1067214064E+04
          0                 8           1            66    5     2       0.4490671629E-04      78   65    2        -0.1066104193E+04      0.1066106140E+04
          0                 9           1            78   65     2      -0.3498510855E-04      78   65    2        -0.1064966522E+04      0.1064968467E+04
          0                10           1            78   65     2      -0.3494574257E-04      78   65    2        -0.1063797675E+04      0.1063799617E+04
                                                   Max.-Head-Change                         Max.-Flux-Residual
  Residual-Control   Outer-Iter.   Inner-Iter.     Column Row Layer    Maximum-Head-Change  Column Row Layer    Maximum-Flux-Residual          L2-NORM 
          0                11           1            78   65     2      -0.3490535814E-04      78   65    2        -0.1062597739E+04      0.1062599679E+04
          0                12           1            78   65     2      -0.3486396027E-04      78   65    2        -0.1061366856E+04      0.1061368794E+04
          0                13           1            78   65     2      -0.3482155494E-04      78   65    2        -0.1060105173E+04      0.1060107109E+04
          0                14           1            78   65     2      -0.3477814567E-04      78   65    2        -0.1058812842E+04      0.1058814775E+04
          0                15           1            78   65     2      -0.3473373895E-04      78   65    2        -0.1057490020E+04      0.1057491951E+04
          0                16           1            78   65     2      -0.3468833929E-04      78   65    2        -0.1056136865E+04      0.1056138793E+04
          0                17           1            78   65     2      -0.3464195270E-04      78   65    2        -0.1054753541E+04      0.1054755467E+04
          0                18           1            78   65     2      -0.3459458417E-04      78   65    2        -0.1053340214E+04      0.1053342137E+04
          0                19           1            78   65     2      -0.3454624021E-04      78   65    2        -0.1051897052E+04      0.1051898973E+04
          0                20           2            78   65     2      -0.2724405473E-01      78   65    2        -0.1050433010E+04      0.1050434929E+04
          0                21           2            78   65     2       0.2475162223E-02      78   65    2         0.1215990046E+03      0.1261806121E+03

    ------------------------------------------------
       NWT REQUIRED           21 OUTER ITERATIONS 
       AND A TOTAL OF         39 INNER ITERATIONS.
    ------------------------------------------------

 NO OUTPUT CONTROL FOR STRESS PERIOD   25   TIME STEP    1
 
 SOLVING FOR HEAD 
                                                   Max.-Head-Change                         Max.-Flux-Residual
  Residual-Control   Outer-Iter.   Inner-Iter.     Column Row Layer    Maximum-Head-Change  Column Row Layer    Maximum-Flux-Residual          L2-NORM 
          0                 1           7            59   85     3       0.4991712592E+01      58   66    1         0.2133131693E+06      0.6930025111E+06
          0                 2           6            20   42     2      -0.2062574636E+01      70   17    1        -0.2468900636E+05      0.7584761397E+05
          0                 3           3            20   42     2       0.4036825199E+00      15    2    1        -0.7013111442E+04      0.7184818557E+04
          0                 4           2            15    2     1      -0.1150735620E-01      15    2    1        -0.6322689750E+03      0.6347803131E+03
          0                 5           2            15    2     1      -0.1035233480E-02      15    2    1        -0.5685015894E+02      0.5720071697E+02

    ------------------------------------------------
       NWT REQUIRED            5 OUTER ITERATIONS 
       AND A TOTAL OF         20 INNER ITERATIONS.
    ------------------------------------------------

 NO OUTPUT CONTROL FOR STRESS PERIOD   25   TIME STEP    2
 
 SOLVING FOR HEAD 
                                                   Max.-Head-Change                         Max.-Flux-Residual
  Residual-Control   Outer-Iter.   Inner-Iter.     Column Row Layer    Maximum-Head-Change  Column Row Layer    Maximum-Flux-Residual          L2-NORM 
          0                 1           7            71   16     1       0.3039019166E+01      58   66    1         0.1262142287E+06      0.5912351484E+06
          0                 2           6            66   25     1      -0.5232626637E+00      66   25    1        -0.2423397371E+05      0.6658706496E+05
          0                 3           2            15    2     1       0.1325750539E-01      79   81    2        -0.9371716443E+03      0.1004450994E+04
          0                 4           1            91   77     2      -0.2117695677E-03      79   81    2        -0.9334193839E+03      0.9334385556E+03
          0                 5           1            79   81     2      -0.8758294573E-04      79   81    2        -0.9294217224E+03      0.9294246918E+03
          0                 6           2            79   81     2      -0.2016223555E-01      79   81    2        -0.9251089236E+03      0.9251116828E+03
          0                 7           2            79   81     2       0.1830158197E-02      79   81    2         0.1261855270E+03      0.1398343146E+03

    ------------------------------------------------
       NWT REQUIRED            7 OUTER ITERATIONS 
       AND A TOTAL OF         21 INNER ITERATIONS.
    ------------------------------------------------

 NO OUTPUT CONTROL FOR STRESS PERIOD   25   TIME STEP    3
 
 SOLVING FOR HEAD 
                                                   Max.-Head-Change                         Max.-Flux-Residual
  Residual-Control   Outer-Iter.   Inner-Iter.     Column Row Layer    Maximum-Head-Change  Column Row Layer    Maximum-Flux-Residual          L2-NORM 
          0                 1           7            71   16     1       0.2856819703E+01      58   66    1         0.7691374155E+05      0.5422940555E+06
          0                 2           6            21   44     2      -0.6153430646E+00      58   66    1        -0.7908835448E+04      0.5576535053E+05
          0                 3           2            21   44     2       0.5302991819E-01      57  105    1        -0.1509632186E+04      0.1798459555E+04
          0                 4           2            57  105     1      -0.2495548008E-02      57  105    1        -0.1359155517E+03      0.1361157780E+03

    ------------------------------------------------
       NWT REQUIRED            4 OUTER ITERATIONS 
       AND A TOTAL OF         17 INNER ITERATIONS.
    ------------------------------------------------

 NO OUTPUT CONTROL FOR STRESS PERIOD   25   TIME STEP    4
 
 SOLVING FOR HEAD 
                                                   Max.-Head-Change                         Max.-Flux-Residual
  Residual-Control   Outer-Iter.   Inner-Iter.     Column Row Layer    Maximum-Head-Change  Column Row Layer    Maximum-Flux-Residual          L2-NORM 
          0                 1           7            71   16     1       0.2687769284E+01      71   16    1         0.7119486511E+05      0.5144656088E+06
          0                 2           5            72   15     2       0.1566739950E+01      73   14    1        -0.4507050837E+05      0.7094214460E+05
          0                 3           2            72   15     2      -0.1422755250E+00      35   18    2        -0.3819168706E+04      0.4266399032E+04
          0                 4           2            35   18     2      -0.1070958637E-01      35   18    2        -0.3443276470E+03      0.3448258728E+03
          0                 5           2            35   18     2      -0.9641004816E-03      35   18    2        -0.3099164860E+02      0.3104453045E+02

    ------------------------------------------------
       NWT REQUIRED            5 OUTER ITERATIONS 
       AND A TOTAL OF         18 INNER ITERATIONS.
    ------------------------------------------------

 NO OUTPUT CONTROL FOR STRESS PERIOD   25   TIME STEP    5
 
 SOLVING FOR HEAD 
                                                   Max.-Head-Change                         Max.-Flux-Residual
  Residual-Control   Outer-Iter.   Inner-Iter.     Column Row Layer    Maximum-Head-Change  Column Row Layer    Maximum-Flux-Residual          L2-NORM 
          0                 1           7            72   15     2       0.4678359408E+01      71   16    1         0.6702250024E+05      0.4962695735E+06
          0                 2           6            35   18     2      -0.4371920657E+01      64   28    2         0.1289386333E+05      0.5350776944E+05
          0                 3           3            35   18     2       0.6488720229E+00      64   28    2        -0.1286721775E+04      0.2085292144E+04
          0                 4           2            35   18     2       0.1009772420E-01      35   17    2        -0.4736951534E+02      0.5094660142E+02
          0                 5           1            35   18     2       0.1457446168E-03      35   17    2        -0.4056627813E+01      0.4085482263E+01

    ------------------------------------------------
       NWT REQUIRED            5 OUTER ITERATIONS 
       AND A TOTAL OF         19 INNER ITERATIONS.
    ------------------------------------------------

 NO OUTPUT CONTROL FOR STRESS PERIOD   25   TIME STEP    6
 
 SOLVING FOR HEAD 
                                                   Max.-Head-Change                         Max.-Flux-Residual
  Residual-Control   Outer-Iter.   Inner-Iter.     Column Row Layer    Maximum-Head-Change  Column Row Layer    Maximum-Flux-Residual          L2-NORM 
          0                 1           7            22   46     2      -0.2748314072E+01      72   15    1         0.7299801624E+05      0.4845102836E+06
          0                 2           5            72   15     1      -0.2508479638E+00      63   23    2        -0.7536900549E+04      0.5019469061E+05
          0                 3           2            66   25     2      -0.2026785963E-01      66   25    2        -0.5261896500E+03      0.5952854067E+03
          0                 4           1            91   77     2      -0.1462875297E-03      67   24    2         0.1349622401E+01      0.2044760472E+01

    ------------------------------------------------
       NWT REQUIRED            4 OUTER ITERATIONS 
       AND A TOTAL OF         15 INNER ITERATIONS.
    ------------------------------------------------

 NO OUTPUT CONTROL FOR STRESS PERIOD   25   TIME STEP    7
 
 SOLVING FOR HEAD 
                                                   Max.-Head-Change                         Max.-Flux-Residual
  Residual-Control   Outer-Iter.   Inner-Iter.     Column Row Layer    Maximum-Head-Change  Column Row Layer    Maximum-Flux-Residual          L2-NORM 
          0                 1           7            72   15     1       0.2577083528E+01      72   15    1         0.6844487827E+05      0.4745777689E+06
          0                 2           6            34   16     2      -0.3442225456E+00      72   15    1        -0.6886190097E+04      0.4866865083E+05
          0                 3           3            34   16     2       0.2482611123E-01      24   32    1        -0.1063129003E+04      0.1188819418E+04
          0                 4           2            24   32     1      -0.1996458325E-02      24   32    1        -0.9570855544E+02      0.9576606251E+02

    ------------------------------------------------
       NWT REQUIRED            4 OUTER ITERATIONS 
       AND A TOTAL OF         18 INNER ITERATIONS.
    ------------------------------------------------

 NO OUTPUT CONTROL FOR STRESS PERIOD   25   TIME STEP    8
 
 SOLVING FOR HEAD 
                                                   Max.-Head-Change                         Max.-Flux-Residual
  Residual-Control   Outer-Iter.   Inner-Iter.     Column Row Layer    Maximum-Head-Change  Column Row Layer    Maximum-Flux-Residual          L2-NORM 
          0                 1           7            34   16     2      -0.4828400866E+01      72   15    1         0.6422454005E+05      0.4669379394E+06
          0                 2           6            70   19     2       0.1833489263E+01      70   19    2         0.2257370905E+05      0.5559598801E+05
          0                 3           3            70   19     2      -0.1662180190E+00      25   60    2        -0.3802502274E+04      0.4906406724E+04
          0                 4           2            25   60     2      -0.5553406161E-02      25   60    2        -0.3423237878E+03      0.3423720913E+03

    ------------------------------------------------
       NWT REQUIRED            4 OUTER ITERATIONS 
       AND A TOTAL OF         18 INNER ITERATIONS.
    ------------------------------------------------

 NO OUTPUT CONTROL FOR STRESS PERIOD   25   TIME STEP    9
 
 SOLVING FOR HEAD 
                                                   Max.-Head-Change                         Max.-Flux-Residual
  Residual-Control   Outer-Iter.   Inner-Iter.     Column Row Layer    Maximum-Head-Change  Column Row Layer    Maximum-Flux-Residual          L2-NORM 
          0                 1           7            70   19     2       0.3144748314E+01      72   15    1         0.6038893528E+05      0.4608854742E+06
          0                 2           6            78   63     1      -0.1025457520E+01      32   27    2         0.7136126158E+04      0.4775942051E+05
          0                 3           3            78   63     1       0.7874741969E-01      13    1    1        -0.2578118576E+04      0.2736293830E+04
          0                 4           2            13    1     1      -0.4259671864E-02      13    1    1        -0.2321031874E+03      0.2321428983E+03

    ------------------------------------------------
       NWT REQUIRED            4 OUTER ITERATIONS 
       AND A TOTAL OF         18 INNER ITERATIONS.
    ------------------------------------------------

 NO OUTPUT CONTROL FOR STRESS PERIOD   25   TIME STEP   10

 INTERPOLATION FOR HEAD OBS# 7923, ID 1705-25-328  CHANGED BECAUSE AT LEAST ONE
 NEIGHBORING CELL REQUIRED FOR INTERPOLATION IS DRY OR INACTIVE (OBS2BAS7SE)

 INTERPOLATION FOR HEAD OBS# 7926, ID 1066-25-335  CHANGED BECAUSE AT LEAST ONE
 NEIGHBORING CELL REQUIRED FOR INTERPOLATION IS DRY OR INACTIVE (OBS2BAS7SE)
 
 SOLVING FOR HEAD 
                                                   Max.-Head-Change                         Max.-Flux-Residual
  Residual-Control   Outer-Iter.   Inner-Iter.     Column Row Layer    Maximum-Head-Change  Column Row Layer    Maximum-Flux-Residual          L2-NORM 
          0                 1           7            72   15     1       0.2156160611E+01      70   19    1         0.6241276334E+05      0.4567409555E+06
          0                 2           6            70   17     2       0.6541754492E+00      32   33    2         0.1174302438E+05      0.4905587255E+05
          0                 3           2            70   17     2      -0.5944781227E-01      70   17    2        -0.5584540627E+03      0.9356443440E+03
          0                 4           1            24   26     1      -0.3198107714E-03      24   26    1        -0.2019739546E+02      0.2037082906E+02

    ------------------------------------------------
       NWT REQUIRED            4 OUTER ITERATIONS 
       AND A TOTAL OF         16 INNER ITERATIONS.
    ------------------------------------------------

 NO OUTPUT CONTROL FOR STRESS PERIOD   25   TIME STEP   11

 INTERPOLATION FOR HEAD OBS# 7905, ID 3200-25-336  CHANGED BECAUSE AT LEAST ONE
 NEIGHBORING CELL REQUIRED FOR INTERPOLATION IS DRY OR INACTIVE (OBS2BAS7SE)
 
 SOLVING FOR HEAD 
                                                   Max.-Head-Change                         Max.-Flux-Residual
  Residual-Control   Outer-Iter.   Inner-Iter.     Column Row Layer    Maximum-Head-Change  Column Row Layer    Maximum-Flux-Residual          L2-NORM 
          0                 1           7            70   17     2       0.2310719511E+01      70   19    1         0.5817509689E+05      0.4515970658E+06
          0                 2           6            34   32     1      -0.1366797507E+01      26   32    2         0.1121930564E+05      0.4908497565E+05
          0                 3           3            34   32     1       0.1192187105E+00      34   32    1         0.9261305982E+03      0.1503542691E+04
          0                 4           1            34   32     1       0.4342102218E-03      34   32    1         0.3297727793E+01      0.3603679948E+01

    ------------------------------------------------
       NWT REQUIRED            4 OUTER ITERATIONS 
       AND A TOTAL OF         17 INNER ITERATIONS.
    ------------------------------------------------

 OUTPUT CONTROL FOR STRESS PERIOD   25   TIME STEP   12
    SAVE BUDGET
 UBDSV1 SAVING "         STORAGE" ON UNIT  39 AT TIME STEP 12, STRESS PERIOD  25
 UBDSV2 SAVING "   CONSTANT HEAD" ON UNIT  39 AT TIME STEP 12, STRESS PERIOD  25
 UBDSV1 SAVING "FLOW RIGHT FACE " ON UNIT  39 AT TIME STEP 12, STRESS PERIOD  25
 UBDSV1 SAVING "FLOW FRONT FACE " ON UNIT  39 AT TIME STEP 12, STRESS PERIOD  25
 UBDSV1 SAVING "FLOW LOWER FACE " ON UNIT  39 AT TIME STEP 12, STRESS PERIOD  25
 UBDSV4 SAVING "           WELLS" ON UNIT  39 AT TIME STEP 12, STRESS PERIOD  25
 UBDSV3 SAVING "              ET" ON UNIT  39 AT TIME STEP 12, STRESS PERIOD  25
 UBDSV3 SAVING "        RECHARGE" ON UNIT  39 AT TIME STEP 12, STRESS PERIOD  25

 INTERPOLATION FOR HEAD OBS# 7973, ID 2928-26-18   CHANGED BECAUSE AT LEAST ONE
 NEIGHBORING CELL REQUIRED FOR INTERPOLATION IS DRY OR INACTIVE (OBS2BAS7SE)

 INTERPOLATION FOR HEAD OBS# 7977, ID 2789-26-18   CHANGED BECAUSE AT LEAST ONE
 NEIGHBORING CELL REQUIRED FOR INTERPOLATION IS DRY OR INACTIVE (OBS2BAS7SE)

 INTERPOLATION FOR HEAD OBS# 7990, ID 2931-26-22   CHANGED BECAUSE AT LEAST ONE
 NEIGHBORING CELL REQUIRED FOR INTERPOLATION IS DRY OR INACTIVE (OBS2BAS7SE)

 INTERPOLATION FOR HEAD OBS# 8000, ID 2303-26-1    CHANGED BECAUSE AT LEAST ONE
 NEIGHBORING CELL REQUIRED FOR INTERPOLATION IS DRY OR INACTIVE (OBS2BAS7SE)

 INTERPOLATION FOR HEAD OBS# 8011, ID 1930-26-14   CHANGED BECAUSE AT LEAST ONE
 NEIGHBORING CELL REQUIRED FOR INTERPOLATION IS DRY OR INACTIVE (OBS2BAS7SE)

 INTERPOLATION FOR HEAD OBS# 8030, ID 1428-26-1    CHANGED BECAUSE AT LEAST ONE
 NEIGHBORING CELL REQUIRED FOR INTERPOLATION IS DRY OR INACTIVE (OBS2BAS7SE)

 INTERPOLATION FOR HEAD OBS# 8114, ID 846-26-13    CHANGED BECAUSE AT LEAST ONE
 NEIGHBORING CELL REQUIRED FOR INTERPOLATION IS DRY OR INACTIVE (OBS2BAS7SE)
1
  VOLUMETRIC BUDGET FOR ENTIRE MODEL AT END OF TIME STEP   12, STRESS PERIOD  25
  ------------------------------------------------------------------------------

     CUMULATIVE VOLUMES      L**3       RATES FOR THIS TIME STEP      L**3/T
     ------------------                 ------------------------

           IN:                                      IN:
           ---                                      ---
             STORAGE =141114441728.0000               STORAGE =    19304336.0000
       CONSTANT HEAD = 11958221824.0000         CONSTANT HEAD =     1371504.7500
               WELLS = 11192543232.0000                 WELLS =     1225642.0000
                  ET =           0.0000                    ET =           0.0000
            RECHARGE =138978295808.0000              RECHARGE =    25394696.0000

            TOTAL IN =303243526144.0000              TOTAL IN =    47296176.0000

          OUT:                                     OUT:
          ----                                     ----
             STORAGE = 15979492352.0000               STORAGE =     4213625.5000
       CONSTANT HEAD = 33093703680.0000         CONSTANT HEAD =     3569539.0000
               WELLS =245240381440.0000                 WELLS =    38809840.0000
                  ET =  8929993728.0000                    ET =      703165.5000
            RECHARGE =           0.0000              RECHARGE =           0.0000

           TOTAL OUT =303243558912.0000             TOTAL OUT =    47296168.0000

            IN - OUT =      -32768.0000              IN - OUT =           8.0000

 PERCENT DISCREPANCY =          -0.00     PERCENT DISCREPANCY =           0.00






         TIME SUMMARY AT END OF TIME STEP   12 IN STRESS PERIOD   25
                    SECONDS     MINUTES      HOURS       DAYS        YEARS
                    -----------------------------------------------------------
   TIME STEP LENGTH 2.63520E+06  43920.      732.00      30.500     8.35044E-02
 STRESS PERIOD TIME 3.16224E+07 5.27040E+05  8784.0      366.00      1.0021    
         TOTAL TIME 7.89004E+08 1.31501E+07 2.19168E+05  9132.0      25.002    
1
1
                            STRESS PERIOD NO.   26, LENGTH =   365.0000    
                            -----------------------------------------------

                              NUMBER OF TIME STEPS =    12

                               MULTIPLIER FOR DELT =     1.000

                            INITIAL TIME STEP SIZE =   30.41667    

   1966 WELLS

 REUSING SURF FROM LAST STRESS PERIOD

 REUSING EVTR FROM LAST STRESS PERIOD

 REUSING EXDP FROM LAST STRESS PERIOD



                           RECHARGE
 READING ON UNIT   16 WITH FORMAT: (15F5.0)            


     63 TIME-VARIANT SPECIFIED-HEAD CELLS
 
 SOLVING FOR HEAD 
                                                   Max.-Head-Change                         Max.-Flux-Residual
  Residual-Control   Outer-Iter.   Inner-Iter.     Column Row Layer    Maximum-Head-Change  Column Row Layer    Maximum-Flux-Residual          L2-NORM 
          0                 1           8            65    2     2      -0.6169149855E+02      32   21    2        -0.5890108122E+06      0.1022747792E+07
          0                 2           6            65    6     2      -0.1684223074E+02      32   21    2         0.5764783590E+05      0.1173731765E+06
          0                 3           3            65    3     2      -0.2050936859E+01      65    3    2        -0.5873172958E+05      0.5895268766E+05
          0                 4           2            65    3     2      -0.1872757518E+00      65    3    2        -0.5350824427E+04      0.5369367039E+04
          0                 5           2            65    3     2      -0.1686216538E-01      65    3    2        -0.4816211915E+03      0.4833664183E+03
          0                 6           2            66    3     2       0.1577283277E-02      65    3    2        -0.4325429268E+02      0.4343568228E+02

    ------------------------------------------------
       NWT REQUIRED            6 OUTER ITERATIONS 
       AND A TOTAL OF         23 INNER ITERATIONS.
    ------------------------------------------------

 NO OUTPUT CONTROL FOR STRESS PERIOD   26   TIME STEP    1

 INTERPOLATION FOR HEAD OBS# 8126, ID 1168-26-35   CHANGED BECAUSE AT LEAST ONE
 NEIGHBORING CELL REQUIRED FOR INTERPOLATION IS DRY OR INACTIVE (OBS2BAS7SE)
 
 SOLVING FOR HEAD 
                                                   Max.-Head-Change                         Max.-Flux-Residual
  Residual-Control   Outer-Iter.   Inner-Iter.     Column Row Layer    Maximum-Head-Change  Column Row Layer    Maximum-Flux-Residual          L2-NORM 
          0                 1           7            65    6     2      -0.1188237461E+02      32   21    2        -0.1786942529E+06      0.6126569796E+06
          0                 2           6            65    3     2      -0.2311699661E+02      23   46    2        -0.1931301591E+05      0.6792856144E+05
          0                 3           3            65    3     2       0.1059145761E+01      32   33    1         0.1442982045E+04      0.2284408421E+04
          0                 4           2            65    3     2       0.5496888146E-01      65    3    2         0.2683773888E+02      0.3007490793E+02
          0                 5           2            65    3     2       0.2851200303E-02      65    3    3         0.2135994695E+01      0.2698485119E+01

    ------------------------------------------------
       NWT REQUIRED            5 OUTER ITERATIONS 
       AND A TOTAL OF         20 INNER ITERATIONS.
    ------------------------------------------------

 NO OUTPUT CONTROL FOR STRESS PERIOD   26   TIME STEP    2

 INTERPOLATION FOR HEAD OBS# 8174, ID 683-26-91    CHANGED BECAUSE AT LEAST ONE
 NEIGHBORING CELL REQUIRED FOR INTERPOLATION IS DRY OR INACTIVE (OBS2BAS7SE)

 INTERPOLATION FOR HEAD OBS# 8178, ID 451-26-85    CHANGED BECAUSE AT LEAST ONE
 NEIGHBORING CELL REQUIRED FOR INTERPOLATION IS DRY OR INACTIVE (OBS2BAS7SE)
 
 SOLVING FOR HEAD 
                                                   Max.-Head-Change                         Max.-Flux-Residual
  Residual-Control   Outer-Iter.   Inner-Iter.     Column Row Layer    Maximum-Head-Change  Column Row Layer    Maximum-Flux-Residual          L2-NORM 
          0                 1           7            23   46     2       0.4203114897E+01      23   46    2         0.8592790683E+05      0.5246672605E+06
          0                 2           6            23   46     2      -0.5062748084E+00      23   46    2        -0.1237784852E+05      0.5369578210E+05
          0                 3           3            19   39     2      -0.2500773563E+00      19   39    2        -0.6178480838E+04      0.6695279799E+04
          0                 4           2            19   39     2      -0.2291841270E-01      19   39    2        -0.5645439807E+03      0.6094252143E+03
          0                 5           2            19   39     2      -0.2064913517E-02      19   39    2        -0.5082797317E+02      0.5493225083E+02

    ------------------------------------------------
       NWT REQUIRED            5 OUTER ITERATIONS 
       AND A TOTAL OF         20 INNER ITERATIONS.
    ------------------------------------------------

 NO OUTPUT CONTROL FOR STRESS PERIOD   26   TIME STEP    3
 
 SOLVING FOR HEAD 
                                                   Max.-Head-Change                         Max.-Flux-Residual
  Residual-Control   Outer-Iter.   Inner-Iter.     Column Row Layer    Maximum-Head-Change  Column Row Layer    Maximum-Flux-Residual          L2-NORM 
          0                 1           7            69   21     1      -0.4738166021E+01      89   66    1         0.5990174517E+05      0.4860472465E+06
          0                 2           6            65    5     2      -0.5180251774E+01      29   33    1        -0.1552286938E+05      0.5215182675E+05
          0                 3           3            19   39     2       0.2482836231E+00      29   33    1         0.1561854483E+04      0.2058925983E+04
          0                 4           2            65    5     2       0.1062741234E-01      65    5    2         0.5605494509E+01      0.9650089307E+01
          0                 5           1            65    5     2       0.5129607208E-03      65    5    3         0.4992487058E+00      0.7338267540E+00

    ------------------------------------------------
       NWT REQUIRED            5 OUTER ITERATIONS 
       AND A TOTAL OF         19 INNER ITERATIONS.
    ------------------------------------------------

 NO OUTPUT CONTROL FOR STRESS PERIOD   26   TIME STEP    4

 INTERPOLATION FOR HEAD OBS# 7950, ID 3016-26-123  CHANGED BECAUSE AT LEAST ONE
 NEIGHBORING CELL REQUIRED FOR INTERPOLATION IS DRY OR INACTIVE (OBS2BAS7SE)
 
 SOLVING FOR HEAD 
                                                   Max.-Head-Change                         Max.-Flux-Residual
  Residual-Control   Outer-Iter.   Inner-Iter.     Column Row Layer    Maximum-Head-Change  Column Row Layer    Maximum-Flux-Residual          L2-NORM 
          0                 1           7            65    5     2      -0.2034607322E+02      89   66    1         0.5620796688E+05      0.4641651056E+06
          0                 2           6            20   41     2      -0.3760483967E+01      26   38    2         0.1096277919E+05      0.5103399928E+05
          0                 3           3            20   41     2       0.3082209822E+00      20   41    2         0.6675757060E+03      0.1125999340E+04
          0                 4           2            85   62     1       0.4200665698E-02      62  116    1        -0.3060524897E+02      0.3183452012E+02

    ------------------------------------------------
       NWT REQUIRED            4 OUTER ITERATIONS 
       AND A TOTAL OF         18 INNER ITERATIONS.
    ------------------------------------------------

 NO OUTPUT CONTROL FOR STRESS PERIOD   26   TIME STEP    5
 
 SOLVING FOR HEAD 
                                                   Max.-Head-Change                         Max.-Flux-Residual
  Residual-Control   Outer-Iter.   Inner-Iter.     Column Row Layer    Maximum-Head-Change  Column Row Layer    Maximum-Flux-Residual          L2-NORM 
          0                 1           7            85   62     1      -0.7127509598E+01      89   66    1         0.5278047869E+05      0.4493195695E+06
          0                 2           6            70   46     1      -0.9706943087E+00      17    7    2         0.7874251153E+04      0.4568534455E+05
          0                 3           2            20   40     2      -0.1156877445E+00      20   40    2        -0.2654226358E+04      0.2709528520E+04
          0                 4           2            20   40     2      -0.1047486072E-01      20   40    2        -0.2400537614E+03      0.2401483749E+03
          0                 5           2            20   40     2      -0.9426423985E-03      20   40    2        -0.2159441951E+02      0.2160321769E+02

    ------------------------------------------------
       NWT REQUIRED            5 OUTER ITERATIONS 
       AND A TOTAL OF         19 INNER ITERATIONS.
    ------------------------------------------------

 NO OUTPUT CONTROL FOR STRESS PERIOD   26   TIME STEP    6
 
 SOLVING FOR HEAD 
                                                   Max.-Head-Change                         Max.-Flux-Residual
  Residual-Control   Outer-Iter.   Inner-Iter.     Column Row Layer    Maximum-Head-Change  Column Row Layer    Maximum-Flux-Residual          L2-NORM 
          0                 1           7            28   32     1      -0.1480089528E+01      88   65    1         0.5049244833E+05      0.4392953739E+06
          0                 2           6            20   40     2      -0.5809612452E+01      20   40    2        -0.1034706618E+05      0.4622740719E+05
          0                 3           4            20   40     2       0.4669060484E+00      20   40    2         0.9138382145E+03      0.1117516116E+04
          0                 4           2            20   40     2       0.4452970882E-02      20   40    2         0.8603687594E+01      0.1097504327E+02

    ------------------------------------------------
       NWT REQUIRED            4 OUTER ITERATIONS 
       AND A TOTAL OF         19 INNER ITERATIONS.
    ------------------------------------------------

 NO OUTPUT CONTROL FOR STRESS PERIOD   26   TIME STEP    7
 
 SOLVING FOR HEAD 
                                                   Max.-Head-Change                         Max.-Flux-Residual
  Residual-Control   Outer-Iter.   Inner-Iter.     Column Row Layer    Maximum-Head-Change  Column Row Layer    Maximum-Flux-Residual          L2-NORM 
          0                 1           7            91   67     2       0.1334218897E+01      88   65    1         0.4868628099E+05      0.4318209656E+06
          0                 2           6            21   43     2      -0.2333920237E+01      25   32    2         0.1031322123E+05      0.4518603897E+05
          0                 3           2            21   43     2       0.1982160025E+00      21   43    2         0.5803015569E+03      0.8277185473E+03
          0                 4           2            21   43     2       0.1097907543E-02      21   43    2         0.3091477524E+01      0.4293117975E+01

    ------------------------------------------------
       NWT REQUIRED            4 OUTER ITERATIONS 
       AND A TOTAL OF         17 INNER ITERATIONS.
    ------------------------------------------------

 NO OUTPUT CONTROL FOR STRESS PERIOD   26   TIME STEP    8
 
 SOLVING FOR HEAD 
                                                   Max.-Head-Change                         Max.-Flux-Residual
  Residual-Control   Outer-Iter.   Inner-Iter.     Column Row Layer    Maximum-Head-Change  Column Row Layer    Maximum-Flux-Residual          L2-NORM 
          0                 1           7            21   43     2      -0.1569147280E+01      88   65    1         0.4699002629E+05      0.4258271016E+06
          0                 2           6            25   32     1      -0.3402188800E+00      90   67    1        -0.1206443667E+05      0.4988011225E+05
          0                 3           2            88   67     1      -0.1675332253E+00      88   67    1        -0.7486175456E+04      0.7554676569E+04
          0                 4           2            88   67     1      -0.1509221608E-01      88   67    1        -0.6747749003E+03      0.6750934824E+03
          0                 5           2            88   67     1      -0.1357043401E-02      88   67    1        -0.6066618141E+02      0.6069658960E+02

    ------------------------------------------------
       NWT REQUIRED            5 OUTER ITERATIONS 
       AND A TOTAL OF         19 INNER ITERATIONS.
    ------------------------------------------------

 NO OUTPUT CONTROL FOR STRESS PERIOD   26   TIME STEP    9
 
 SOLVING FOR HEAD 
                                                   Max.-Head-Change                         Max.-Flux-Residual
  Residual-Control   Outer-Iter.   Inner-Iter.     Column Row Layer    Maximum-Head-Change  Column Row Layer    Maximum-Flux-Residual          L2-NORM 
          0                 1           7            92   77     2      -0.5457597752E+02      88   65    1         0.4537812388E+05      0.4203608274E+06
          0                 2           6            88   67     1      -0.1312723642E+02      88   67    1        -0.1336296221E+05      0.4647695530E+05
          0                 3           2            88   67     1       0.7261861357E+00      88   67    2        -0.1330235984E+04      0.1827878927E+04
          0                 4           2            88   67     1       0.2942518562E-01      88   67    1         0.3297419776E+02      0.3349027038E+02
          0                 5           2            88   67     1       0.1033455021E-02      88   67    2         0.2955478016E+01      0.3271668514E+01

    ------------------------------------------------
       NWT REQUIRED            5 OUTER ITERATIONS 
       AND A TOTAL OF         19 INNER ITERATIONS.
    ------------------------------------------------

 NO OUTPUT CONTROL FOR STRESS PERIOD   26   TIME STEP   10
 
 SOLVING FOR HEAD 
                                                   Max.-Head-Change                         Max.-Flux-Residual
  Residual-Control   Outer-Iter.   Inner-Iter.     Column Row Layer    Maximum-Head-Change  Column Row Layer    Maximum-Flux-Residual          L2-NORM 
          0                 1           7            19   38     2      -0.2512818529E+01      88   65    1         0.4381945803E+05      0.4158184074E+06
          0                 2           6            33   32     1      -0.1555820326E+01      33   32    1        -0.9056782026E+04      0.4335398673E+05
          0                 3           3            33   32     1       0.1344746128E+00      33   32    1         0.8626853965E+03      0.1165735456E+04
          0                 4           1            81   56     1       0.9058597872E-03      33   32    1         0.3746596918E+01      0.4527864339E+01

    ------------------------------------------------
       NWT REQUIRED            4 OUTER ITERATIONS 
       AND A TOTAL OF         17 INNER ITERATIONS.
    ------------------------------------------------

 NO OUTPUT CONTROL FOR STRESS PERIOD   26   TIME STEP   11

 INTERPOLATION FOR HEAD OBS# 3713, ID 1471-26-349  CHANGED BECAUSE AT LEAST ONE
 NEIGHBORING CELL REQUIRED FOR INTERPOLATION IS DRY OR INACTIVE (OBS2BAS7SE)
 
 SOLVING FOR HEAD 
                                                   Max.-Head-Change                         Max.-Flux-Residual
  Residual-Control   Outer-Iter.   Inner-Iter.     Column Row Layer    Maximum-Head-Change  Column Row Layer    Maximum-Flux-Residual          L2-NORM 
          0                 1           7            81   56     1      -0.1694212351E+01      88   65    1         0.4231775807E+05      0.4129542015E+06
          0                 2           6            30   33     1      -0.5148487085E+00      29   25    1        -0.9147723860E+04      0.4377054159E+05
          0                 3           2            30   33     1       0.4595318150E-01      29   25    1         0.9033433134E+03      0.1401220950E+04
          0                 4           1            30   33     1       0.7781946722E-04      30   33    1         0.1178140145E+01      0.3378522007E+01

    ------------------------------------------------
       NWT REQUIRED            4 OUTER ITERATIONS 
       AND A TOTAL OF         16 INNER ITERATIONS.
    ------------------------------------------------

 OUTPUT CONTROL FOR STRESS PERIOD   26   TIME STEP   12
    SAVE BUDGET
    SAVE HEAD FOR LAYERS:   1  2  3
 UBDSV1 SAVING "         STORAGE" ON UNIT  39 AT TIME STEP 12, STRESS PERIOD  26
 UBDSV2 SAVING "   CONSTANT HEAD" ON UNIT  39 AT TIME STEP 12, STRESS PERIOD  26
 UBDSV1 SAVING "FLOW RIGHT FACE " ON UNIT  39 AT TIME STEP 12, STRESS PERIOD  26
 UBDSV1 SAVING "FLOW FRONT FACE " ON UNIT  39 AT TIME STEP 12, STRESS PERIOD  26
 UBDSV1 SAVING "FLOW LOWER FACE " ON UNIT  39 AT TIME STEP 12, STRESS PERIOD  26
 UBDSV4 SAVING "           WELLS" ON UNIT  39 AT TIME STEP 12, STRESS PERIOD  26
 UBDSV3 SAVING "              ET" ON UNIT  39 AT TIME STEP 12, STRESS PERIOD  26
 UBDSV3 SAVING "        RECHARGE" ON UNIT  39 AT TIME STEP 12, STRESS PERIOD  26

 INTERPOLATION FOR HEAD OBS# 1739, ID 2615-27-20   CHANGED BECAUSE AT LEAST ONE
 NEIGHBORING CELL REQUIRED FOR INTERPOLATION IS DRY OR INACTIVE (OBS2BAS7SE)

 INTERPOLATION FOR HEAD OBS# 6245, ID 1164-27-12   CHANGED BECAUSE AT LEAST ONE
 NEIGHBORING CELL REQUIRED FOR INTERPOLATION IS DRY OR INACTIVE (OBS2BAS7SE)

 INTERPOLATION FOR HEAD OBS# 6268, ID 987-27-12    CHANGED BECAUSE AT LEAST ONE
 NEIGHBORING CELL REQUIRED FOR INTERPOLATION IS DRY OR INACTIVE (OBS2BAS7SE)

 HEAD WILL BE SAVED ON UNIT   31 AT END OF TIME STEP   12, STRESS PERIOD   26
1
  VOLUMETRIC BUDGET FOR ENTIRE MODEL AT END OF TIME STEP   12, STRESS PERIOD  26
  ------------------------------------------------------------------------------

     CUMULATIVE VOLUMES      L**3       RATES FOR THIS TIME STEP      L**3/T
     ------------------                 ------------------------

           IN:                                      IN:
           ---                                      ---
             STORAGE =148823048192.0000               STORAGE =    20374036.0000
       CONSTANT HEAD = 12483458048.0000         CONSTANT HEAD =     1482734.2500
               WELLS = 11639900160.0000                 WELLS =     1225642.0000
                  ET =           0.0000                    ET =           0.0000
            RECHARGE =148165197824.0000              RECHARGE =    25169380.0000

            TOTAL IN =321111588864.0000              TOTAL IN =    48251792.0000

          OUT:                                     OUT:
          ----                                     ----
             STORAGE = 17080409088.0000               STORAGE =     2170959.2500
       CONSTANT HEAD = 34382094336.0000         CONSTANT HEAD =     3504283.5000
               WELLS =260346757120.0000                 WELLS =    41387432.0000
                  ET =  9302321152.0000                    ET =     1189112.7500
            RECHARGE =           0.0000              RECHARGE =           0.0000

           TOTAL OUT =321111588864.0000             TOTAL OUT =    48251788.0000

            IN - OUT =           0.0000              IN - OUT =           4.0000

 PERCENT DISCREPANCY =           0.00     PERCENT DISCREPANCY =           0.00






         TIME SUMMARY AT END OF TIME STEP   12 IN STRESS PERIOD   26
                    SECONDS     MINUTES      HOURS       DAYS        YEARS
                    -----------------------------------------------------------
   TIME STEP LENGTH 2.62800E+06  43800.      730.00      30.417     8.32763E-02
 STRESS PERIOD TIME 3.15360E+07 5.25600E+05  8760.0      365.00     0.99932    
         TOTAL TIME 8.20541E+08 1.36757E+07 2.27928E+05  9497.0      26.001    
1
1
                            STRESS PERIOD NO.   27, LENGTH =   365.0000    
                            -----------------------------------------------

                              NUMBER OF TIME STEPS =    12

                               MULTIPLIER FOR DELT =     1.000

                            INITIAL TIME STEP SIZE =   30.41667    

   1462 WELLS

 REUSING SURF FROM LAST STRESS PERIOD

 REUSING EVTR FROM LAST STRESS PERIOD

 REUSING EXDP FROM LAST STRESS PERIOD



                           RECHARGE
 READING ON UNIT   16 WITH FORMAT: (15F5.0)            


     63 TIME-VARIANT SPECIFIED-HEAD CELLS
 
 SOLVING FOR HEAD 
                                                   Max.-Head-Change                         Max.-Flux-Residual
  Residual-Control   Outer-Iter.   Inner-Iter.     Column Row Layer    Maximum-Head-Change  Column Row Layer    Maximum-Flux-Residual          L2-NORM 
          0                 1           8            92   77     2       0.8238576912E+02      65   89    1        -0.5907780481E+06      0.1449381896E+07
          0                 2           6            92   77     2      -0.2645293049E+02      92   77    2        -0.7931576262E+06      0.8760144398E+06
          0                 3           2            91   77     2       0.6410109090E+01      92   77    2        -0.9812597336E+04      0.1205222258E+05
          0                 4           2            91   77     2       0.9256993319E+00      91   77    2         0.5178665035E+03      0.7130311496E+03
          0                 5           2            91   77     2       0.1295681373E+00      91   77    2         0.7242198810E+02      0.8483529229E+02
          0                 6           2            91   77     2       0.1814035284E-01      91   77    2         0.1013933151E+02      0.1090335494E+02
          0                 7           2            91   77     2       0.2538348080E-02      91   77    2         0.1418686967E+01      0.1467099355E+01

    ------------------------------------------------
       NWT REQUIRED            7 OUTER ITERATIONS 
       AND A TOTAL OF         24 INNER ITERATIONS.
    ------------------------------------------------

 NO OUTPUT CONTROL FOR STRESS PERIOD   27   TIME STEP    1

 INTERPOLATION FOR HEAD OBS# 1080, ID 2927-27-32   CHANGED BECAUSE AT LEAST ONE
 NEIGHBORING CELL REQUIRED FOR INTERPOLATION IS DRY OR INACTIVE (OBS2BAS7SE)
 
 SOLVING FOR HEAD 
                                                   Max.-Head-Change                         Max.-Flux-Residual
  Residual-Control   Outer-Iter.   Inner-Iter.     Column Row Layer    Maximum-Head-Change  Column Row Layer    Maximum-Flux-Residual          L2-NORM 
          0                 1           7            66  101     3      -0.7463964802E+01      65   89    1        -0.2519149273E+06      0.7545576382E+06
          0                 2           6            22   46     2      -0.3546201776E+01      65   89    1         0.2314794225E+05      0.7677548862E+05
          0                 3           3            22   46     2       0.3124268508E+00      22   46    2         0.1415856461E+04      0.1645563344E+04
          0                 4           2            22   46     2       0.1188029620E-02      22   46    2         0.5384272488E+01      0.9440854713E+01

    ------------------------------------------------
       NWT REQUIRED            4 OUTER ITERATIONS 
       AND A TOTAL OF         18 INNER ITERATIONS.
    ------------------------------------------------

 NO OUTPUT CONTROL FOR STRESS PERIOD   27   TIME STEP    2
 
 SOLVING FOR HEAD 
                                                   Max.-Head-Change                         Max.-Flux-Residual
  Residual-Control   Outer-Iter.   Inner-Iter.     Column Row Layer    Maximum-Head-Change  Column Row Layer    Maximum-Flux-Residual          L2-NORM 
          0                 1           7            22   46     2      -0.4007401019E+01      65   89    1        -0.1245682258E+06      0.5778237300E+06
          0                 2           6            73   14     1      -0.1904981575E+01      70   19    2         0.3806935150E+05      0.7072976305E+05
          0                 3           2            73   14     1       0.1661777422E+00      73   14    1         0.1307050829E+04      0.1361377897E+04
          0                 4           1            73   14     1       0.5925473922E-03      73   14    1         0.4606764112E+01      0.4780277958E+01

    ------------------------------------------------
       NWT REQUIRED            4 OUTER ITERATIONS 
       AND A TOTAL OF         16 INNER ITERATIONS.
    ------------------------------------------------

 NO OUTPUT CONTROL FOR STRESS PERIOD   27   TIME STEP    3
 
 SOLVING FOR HEAD 
                                                   Max.-Head-Change                         Max.-Flux-Residual
  Residual-Control   Outer-Iter.   Inner-Iter.     Column Row Layer    Maximum-Head-Change  Column Row Layer    Maximum-Flux-Residual          L2-NORM 
          0                 1           7            23   46     2      -0.2620491794E+01      65   89    1        -0.7227298617E+05      0.5062672969E+06
          0                 2           6            67  102     1      -0.9272977148E+00      88   65    1        -0.7189489039E+04      0.5112659390E+05
          0                 3           2            67  102     1       0.7169929226E-01      21   20    1         0.5096288050E+03      0.7193767368E+03
          0                 4           2            67  102     1       0.9743328154E-03      67  102    1         0.1997967197E+01      0.2294226283E+01

    ------------------------------------------------
       NWT REQUIRED            4 OUTER ITERATIONS 
       AND A TOTAL OF         17 INNER ITERATIONS.
    ------------------------------------------------

 NO OUTPUT CONTROL FOR STRESS PERIOD   27   TIME STEP    4

 INTERPOLATION FOR HEAD OBS# 8188, ID 3055-27-126  CHANGED BECAUSE AT LEAST ONE
 NEIGHBORING CELL REQUIRED FOR INTERPOLATION IS DRY OR INACTIVE (OBS2BAS7SE)
 
 SOLVING FOR HEAD 
                                                   Max.-Head-Change                         Max.-Flux-Residual
  Residual-Control   Outer-Iter.   Inner-Iter.     Column Row Layer    Maximum-Head-Change  Column Row Layer    Maximum-Flux-Residual          L2-NORM 
          0                 1           7            23   46     2      -0.2076530578E+01      88   65    1         0.6976369091E+05      0.4690948412E+06
          0                 2           6            18   32     2      -0.4802596084E+00      88   65    1        -0.6997610381E+04      0.4796162286E+05
          0                 3           2            18   32     2       0.4152946581E-01      18   32    2         0.4260513524E+03      0.5092989824E+03
          0                 4           1            18   32     2       0.9319542808E-03      18   32    2         0.6501368670E+01      0.1001796816E+02

    ------------------------------------------------
       NWT REQUIRED            4 OUTER ITERATIONS 
       AND A TOTAL OF         16 INNER ITERATIONS.
    ------------------------------------------------

 NO OUTPUT CONTROL FOR STRESS PERIOD   27   TIME STEP    5
 
 SOLVING FOR HEAD 
                                                   Max.-Head-Change                         Max.-Flux-Residual
  Residual-Control   Outer-Iter.   Inner-Iter.     Column Row Layer    Maximum-Head-Change  Column Row Layer    Maximum-Flux-Residual          L2-NORM 
          0                 1           7            88   65     1       0.1761292199E+01      88   65    1         0.6788326267E+05      0.4454961764E+06
          0                 2           6            87   66     1      -0.7624649918E+00      87   66    1        -0.3085968135E+05      0.5465150572E+05
          0                 3           4            21   42     2       0.5716469109E-01      25   24    1         0.4111483777E+03      0.5497487525E+03
          0                 4           1            21   42     2       0.5482475830E-03      57   77    1        -0.1175639507E+02      0.1192713200E+02

    ------------------------------------------------
       NWT REQUIRED            4 OUTER ITERATIONS 
       AND A TOTAL OF         18 INNER ITERATIONS.
    ------------------------------------------------

 NO OUTPUT CONTROL FOR STRESS PERIOD   27   TIME STEP    6
 
 SOLVING FOR HEAD 
                                                   Max.-Head-Change                         Max.-Flux-Residual
  Residual-Control   Outer-Iter.   Inner-Iter.     Column Row Layer    Maximum-Head-Change  Column Row Layer    Maximum-Flux-Residual          L2-NORM 
          0                 1           7            21   42     2      -0.4845615105E+01      88   65    1         0.6604264004E+05      0.4288715515E+06
          0                 2           6            21   42     2       0.3515769481E+00      88   65    1        -0.6622536120E+04      0.4389007833E+05
          0                 3           2            57   77     1       0.2265538907E-01      57   77    1         0.3468942997E+03      0.3626066245E+03
          0                 4           1            26   83     2       0.4444174423E-03      24   48    2        -0.9276501359E+00      0.1595599945E+01

    ------------------------------------------------
       NWT REQUIRED            4 OUTER ITERATIONS 
       AND A TOTAL OF         16 INNER ITERATIONS.
    ------------------------------------------------

 NO OUTPUT CONTROL FOR STRESS PERIOD   27   TIME STEP    7
 
 SOLVING FOR HEAD 
                                                   Max.-Head-Change                         Max.-Flux-Residual
  Residual-Control   Outer-Iter.   Inner-Iter.     Column Row Layer    Maximum-Head-Change  Column Row Layer    Maximum-Flux-Residual          L2-NORM 
          0                 1           7            88   65     1       0.1666715143E+01      88   65    1         0.6424784326E+05      0.4164552389E+06
          0                 2           6            87   65     2       0.6563522245E+01      87   65    2         0.1274828981E+05      0.4408853751E+05
          0                 3           3            87   65     2      -0.5966771023E+00      87   65    2        -0.1274829459E+04      0.1456746863E+04
          0                 4           1            16   27     2       0.1039000272E-03      16   27    2         0.9947375618E+00      0.1479689581E+01

    ------------------------------------------------
       NWT REQUIRED            4 OUTER ITERATIONS 
       AND A TOTAL OF         17 INNER ITERATIONS.
    ------------------------------------------------

 NO OUTPUT CONTROL FOR STRESS PERIOD   27   TIME STEP    8
 
 SOLVING FOR HEAD 
                                                   Max.-Head-Change                         Max.-Flux-Residual
  Residual-Control   Outer-Iter.   Inner-Iter.     Column Row Layer    Maximum-Head-Change  Column Row Layer    Maximum-Flux-Residual          L2-NORM 
          0                 1           7            87   65     2       0.4619010366E+01      88   65    1         0.6327036659E+05      0.4066969233E+06
          0                 2           5            64   39     2      -0.2000317812E+01      70   19    1        -0.1460235965E+05      0.4551530173E+05
          0                 3           3            70   19     1       0.1697254870E+00      90   67    2        -0.1427899083E+04      0.2041319160E+04
          0                 4           2            64   39     2       0.4120192268E-02      70   19    1         0.5060248081E+01      0.5804985479E+01

    ------------------------------------------------
       NWT REQUIRED            4 OUTER ITERATIONS 
       AND A TOTAL OF         17 INNER ITERATIONS.
    ------------------------------------------------

 NO OUTPUT CONTROL FOR STRESS PERIOD   27   TIME STEP    9
 
 SOLVING FOR HEAD 
                                                   Max.-Head-Change                         Max.-Flux-Residual
  Residual-Control   Outer-Iter.   Inner-Iter.     Column Row Layer    Maximum-Head-Change  Column Row Layer    Maximum-Flux-Residual          L2-NORM 
          0                 1           7            70   19     1      -0.2147841852E+01      88   65    1         0.6205553846E+05      0.3995474779E+06
          0                 2           6            78   59     1      -0.6234496077E+00      17    8    2         0.8386202996E+04      0.4136068288E+05
          0                 3           2            78   59     1       0.5369372440E-01      28   31    1         0.3592615282E+03      0.4416863894E+03
          0                 4           1            78   59     1       0.2273909452E-03      78   59    1         0.9112470550E+00      0.1511990498E+01

    ------------------------------------------------
       NWT REQUIRED            4 OUTER ITERATIONS 
       AND A TOTAL OF         16 INNER ITERATIONS.
    ------------------------------------------------

 NO OUTPUT CONTROL FOR STRESS PERIOD   27   TIME STEP   10
 
 SOLVING FOR HEAD 
                                                   Max.-Head-Change                         Max.-Flux-Residual
  Residual-Control   Outer-Iter.   Inner-Iter.     Column Row Layer    Maximum-Head-Change  Column Row Layer    Maximum-Flux-Residual          L2-NORM 
          0                 1           7            88   65     1       0.1569322300E+01      88   65    1         0.6045417147E+05      0.3932444609E+06
          0                 2           5            88   65     1      -0.1429305804E+00      88   65    1        -0.6058756511E+04      0.3967777604E+05
          0                 3           2            91   77     2      -0.1312110802E-02      24   12    2        -0.3676874305E+02      0.5788111948E+02

    ------------------------------------------------
       NWT REQUIRED            3 OUTER ITERATIONS 
       AND A TOTAL OF         14 INNER ITERATIONS.
    ------------------------------------------------

 NO OUTPUT CONTROL FOR STRESS PERIOD   27   TIME STEP   11
 
 SOLVING FOR HEAD 
                                                   Max.-Head-Change                         Max.-Flux-Residual
  Residual-Control   Outer-Iter.   Inner-Iter.     Column Row Layer    Maximum-Head-Change  Column Row Layer    Maximum-Flux-Residual          L2-NORM 
          0                 1           7            88   65     1       0.1527681005E+01      88   65    1         0.5885228315E+05      0.3870979846E+06
          0                 2           5            67  101     1      -0.7562210347E+00      88   65    1        -0.5897578816E+04      0.3883684725E+05
          0                 3           2            35   32     1      -0.6102459036E-01      35   32    1        -0.2099825172E+04      0.2106845128E+04
          0                 4           2            35   32     1      -0.5494924841E-02      35   32    1        -0.1890534109E+03      0.1890722534E+03

    ------------------------------------------------
       NWT REQUIRED            4 OUTER ITERATIONS 
       AND A TOTAL OF         16 INNER ITERATIONS.
    ------------------------------------------------

 OUTPUT CONTROL FOR STRESS PERIOD   27   TIME STEP   12
    SAVE BUDGET
 UBDSV1 SAVING "         STORAGE" ON UNIT  39 AT TIME STEP 12, STRESS PERIOD  27
 UBDSV2 SAVING "   CONSTANT HEAD" ON UNIT  39 AT TIME STEP 12, STRESS PERIOD  27
 UBDSV1 SAVING "FLOW RIGHT FACE " ON UNIT  39 AT TIME STEP 12, STRESS PERIOD  27
 UBDSV1 SAVING "FLOW FRONT FACE " ON UNIT  39 AT TIME STEP 12, STRESS PERIOD  27
 UBDSV1 SAVING "FLOW LOWER FACE " ON UNIT  39 AT TIME STEP 12, STRESS PERIOD  27
 UBDSV4 SAVING "           WELLS" ON UNIT  39 AT TIME STEP 12, STRESS PERIOD  27
 UBDSV3 SAVING "              ET" ON UNIT  39 AT TIME STEP 12, STRESS PERIOD  27
 UBDSV3 SAVING "        RECHARGE" ON UNIT  39 AT TIME STEP 12, STRESS PERIOD  27
1
  VOLUMETRIC BUDGET FOR ENTIRE MODEL AT END OF TIME STEP   12, STRESS PERIOD  27
  ------------------------------------------------------------------------------

     CUMULATIVE VOLUMES      L**3       RATES FOR THIS TIME STEP      L**3/T
     ------------------                 ------------------------

           IN:                                      IN:
           ---                                      ---
             STORAGE =155021836288.0000               STORAGE =    15724021.0000
       CONSTANT HEAD = 13016660992.0000         CONSTANT HEAD =     1466385.2500
               WELLS = 12087257088.0000                 WELLS =     1225642.0000
                  ET =           0.0000                    ET =           0.0000
            RECHARGE =157379428352.0000              RECHARGE =    25244566.0000

            TOTAL IN =337505189888.0000              TOTAL IN =    43660616.0000

          OUT:                                     OUT:
          ----                                     ----
             STORAGE = 19123482624.0000               STORAGE =     4291243.0000
       CONSTANT HEAD = 35695243264.0000         CONSTANT HEAD =     3616399.2500
               WELLS =272945594368.0000                 WELLS =    34517492.0000
                  ET =  9740803072.0000                    ET =     1235500.7500
            RECHARGE =           0.0000              RECHARGE =           0.0000

           TOTAL OUT =337505091584.0000             TOTAL OUT =    43660636.0000

            IN - OUT =       98304.0000              IN - OUT =         -20.0000

 PERCENT DISCREPANCY =           0.00     PERCENT DISCREPANCY =          -0.00






         TIME SUMMARY AT END OF TIME STEP   12 IN STRESS PERIOD   27
                    SECONDS     MINUTES      HOURS       DAYS        YEARS
                    -----------------------------------------------------------
   TIME STEP LENGTH 2.62800E+06  43800.      730.00      30.417     8.32763E-02
 STRESS PERIOD TIME 3.15360E+07 5.25600E+05  8760.0      365.00     0.99932    
         TOTAL TIME 8.52077E+08 1.42013E+07 2.36688E+05  9862.0      27.001    
1
1
                            STRESS PERIOD NO.   28, LENGTH =   365.0000    
                            -----------------------------------------------

                              NUMBER OF TIME STEPS =    12

                               MULTIPLIER FOR DELT =     1.000

                            INITIAL TIME STEP SIZE =   30.41667    

   1494 WELLS

 REUSING SURF FROM LAST STRESS PERIOD

 REUSING EVTR FROM LAST STRESS PERIOD

 REUSING EXDP FROM LAST STRESS PERIOD



                           RECHARGE
 READING ON UNIT   16 WITH FORMAT: (15F5.0)            


     63 TIME-VARIANT SPECIFIED-HEAD CELLS
 
 SOLVING FOR HEAD 
                                                   Max.-Head-Change                         Max.-Flux-Residual
  Residual-Control   Outer-Iter.   Inner-Iter.     Column Row Layer    Maximum-Head-Change  Column Row Layer    Maximum-Flux-Residual          L2-NORM 
          0                 1           8            65    2     2       0.1228304981E+03      65   89    1         0.5397284393E+06      0.1368771572E+07
          0                 2           6            65    5     2      -0.2976727130E+02      65    5    2        -0.7995327861E+06      0.1352612933E+07
          0                 3           3            66    5     2       0.4875810659E+01      66   25    2         0.1807311375E+05      0.2300891610E+05
          0                 4           2            66    5     2       0.7506472256E+00      66   25    2         0.1624357583E+04      0.1803985299E+04
          0                 5           2            66    5     2       0.1129036059E+00      66   25    2         0.1460352687E+03      0.1695282128E+03
          0                 6           2            66    5     2       0.1697199409E-01      66   25    2         0.1311540511E+02      0.1675699864E+02
          0                 7           2            66    5     2       0.2549551739E-02      66   25    2         0.1176448462E+01      0.1812579336E+01

    ------------------------------------------------
       NWT REQUIRED            7 OUTER ITERATIONS 
       AND A TOTAL OF         25 INNER ITERATIONS.
    ------------------------------------------------

 NO OUTPUT CONTROL FOR STRESS PERIOD   28   TIME STEP    1
 
 SOLVING FOR HEAD 
                                                   Max.-Head-Change                         Max.-Flux-Residual
  Residual-Control   Outer-Iter.   Inner-Iter.     Column Row Layer    Maximum-Head-Change  Column Row Layer    Maximum-Flux-Residual          L2-NORM 
          0                 1           7            60   87     2      -0.7369843971E+01      60   87    2        -0.2504789854E+06      0.8342008605E+06
          0                 2           6            23   48     2      -0.2283833821E+01      66   25    2         0.2646579556E+05      0.8941839753E+05
          0                 3           5            23   48     2       0.2011199286E+00      66   25    2        -0.2634494897E+04      0.3036738064E+04
          0                 4           1            23   48     2       0.6197821929E-03      23   48    2         0.3342055492E+01      0.4021656621E+01

    ------------------------------------------------
       NWT REQUIRED            4 OUTER ITERATIONS 
       AND A TOTAL OF         19 INNER ITERATIONS.
    ------------------------------------------------

 NO OUTPUT CONTROL FOR STRESS PERIOD   28   TIME STEP    2
 
 SOLVING FOR HEAD 
                                                   Max.-Head-Change                         Max.-Flux-Residual
  Residual-Control   Outer-Iter.   Inner-Iter.     Column Row Layer    Maximum-Head-Change  Column Row Layer    Maximum-Flux-Residual          L2-NORM 
          0                 1           7            60   87     2      -0.5637107332E+01      60   87    2        -0.1854569473E+06      0.7017756025E+06
          0                 2           6            66  101     2       0.9328125935E+00      60   87    2         0.1790580393E+05      0.7150840938E+05
          0                 3           2            66  101     2      -0.8480920065E-01      66  101    2        -0.5967500820E+03      0.6950819607E+03
          0                 4           1            91   77     2      -0.1063070130E-03      20   33    3        -0.2979447395E+00      0.8591968340E+00

    ------------------------------------------------
       NWT REQUIRED            4 OUTER ITERATIONS 
       AND A TOTAL OF         16 INNER ITERATIONS.
    ------------------------------------------------

 NO OUTPUT CONTROL FOR STRESS PERIOD   28   TIME STEP    3
 
 SOLVING FOR HEAD 
                                                   Max.-Head-Change                         Max.-Flux-Residual
  Residual-Control   Outer-Iter.   Inner-Iter.     Column Row Layer    Maximum-Head-Change  Column Row Layer    Maximum-Flux-Residual          L2-NORM 
          0                 1           7            72   15     1       0.4492072185E+01      60   87    2        -0.1416979208E+06      0.6411078663E+06
          0                 2           6            55   81     3       0.2070709535E+01      66   20    1        -0.2396809380E+05      0.7215173861E+05
          0                 3           2            55   81     3      -0.1882348205E+00      70   19    2        -0.1635328757E+04      0.2136062262E+04
          0                 4           1            68  104     1       0.2576149717E-03      68  104    1         0.7202388011E+00      0.1093846794E+01

    ------------------------------------------------
       NWT REQUIRED            4 OUTER ITERATIONS 
       AND A TOTAL OF         16 INNER ITERATIONS.
    ------------------------------------------------

 NO OUTPUT CONTROL FOR STRESS PERIOD   28   TIME STEP    4
 
 SOLVING FOR HEAD 
                                                   Max.-Head-Change                         Max.-Flux-Residual
  Residual-Control   Outer-Iter.   Inner-Iter.     Column Row Layer    Maximum-Head-Change  Column Row Layer    Maximum-Flux-Residual          L2-NORM 
          0                 1           7            70   19     2       0.7555838252E+01      72   15    1         0.1121976151E+06      0.6051907126E+06
          0                 2           6            18   36     2      -0.1254747002E+01      70   19    2        -0.1208112080E+05      0.6253452374E+05
          0                 3           3            18   36     2       0.1105416081E+00      18   36    2         0.7486528863E+03      0.1015095830E+04
          0                 4           1            18   36     2       0.3256242973E-03      18   36    2         0.2133623211E+01      0.3360024015E+01

    ------------------------------------------------
       NWT REQUIRED            4 OUTER ITERATIONS 
       AND A TOTAL OF         17 INNER ITERATIONS.
    ------------------------------------------------

 NO OUTPUT CONTROL FOR STRESS PERIOD   28   TIME STEP    5
 
 SOLVING FOR HEAD 
                                                   Max.-Head-Change                         Max.-Flux-Residual
  Residual-Control   Outer-Iter.   Inner-Iter.     Column Row Layer    Maximum-Head-Change  Column Row Layer    Maximum-Flux-Residual          L2-NORM 
          0                 1           7            70   19     1       0.3940490499E+01      70   19    1         0.1165784277E+06      0.5842987311E+06
          0                 2           6            18   34     2       0.4845450345E+00      66   23    1        -0.1505602901E+05      0.6196984096E+05
          0                 3           2            66   23     2       0.6517788415E-01      66   23    2         0.4449521821E+04      0.4453573559E+04
          0                 4           2            66   23     2       0.5866175747E-02      66   23    2         0.4003878261E+03      0.4004300628E+03

    ------------------------------------------------
       NWT REQUIRED            4 OUTER ITERATIONS 
       AND A TOTAL OF         17 INNER ITERATIONS.
    ------------------------------------------------

 NO OUTPUT CONTROL FOR STRESS PERIOD   28   TIME STEP    6
 
 SOLVING FOR HEAD 
                                                   Max.-Head-Change                         Max.-Flux-Residual
  Residual-Control   Outer-Iter.   Inner-Iter.     Column Row Layer    Maximum-Head-Change  Column Row Layer    Maximum-Flux-Residual          L2-NORM 
          0                 1           7            72   15     1       0.3643040810E+01      70   19    1         0.1066489508E+06      0.5648252325E+06
          0                 2           6            73   14     2       0.2900654060E+01      73   14    2         0.2965957925E+05      0.6855290922E+05
          0                 3           3            73   14     2      -0.2635455720E+00      73   14    2        -0.2949635039E+04      0.3345277279E+04
          0                 4           1            23   47     2       0.2505847757E-03      29   81    3         0.9310046006E+01      0.9413091115E+01

    ------------------------------------------------
       NWT REQUIRED            4 OUTER ITERATIONS 
       AND A TOTAL OF         17 INNER ITERATIONS.
    ------------------------------------------------

 NO OUTPUT CONTROL FOR STRESS PERIOD   28   TIME STEP    7
 
 SOLVING FOR HEAD 
                                                   Max.-Head-Change                         Max.-Flux-Residual
  Residual-Control   Outer-Iter.   Inner-Iter.     Column Row Layer    Maximum-Head-Change  Column Row Layer    Maximum-Flux-Residual          L2-NORM 
          0                 1           7            73   14     2       0.4062934915E+01      70   19    1         0.9769295832E+05      0.5506559696E+06
          0                 2           6            73   14     2      -0.3707469270E+00      70   19    1        -0.9835065852E+04      0.5620110588E+05
          0                 3           2            25   26     1       0.1495860851E-01      25   26    1         0.4979663190E+03      0.9256174274E+03
          0                 4           1            91   77     2      -0.8521924389E-04      29   81    3        -0.3344950466E+03      0.3344990796E+03

    ------------------------------------------------
       NWT REQUIRED            4 OUTER ITERATIONS 
       AND A TOTAL OF         16 INNER ITERATIONS.
    ------------------------------------------------

 NO OUTPUT CONTROL FOR STRESS PERIOD   28   TIME STEP    8
 
 SOLVING FOR HEAD 
                                                   Max.-Head-Change                         Max.-Flux-Residual
  Residual-Control   Outer-Iter.   Inner-Iter.     Column Row Layer    Maximum-Head-Change  Column Row Layer    Maximum-Flux-Residual          L2-NORM 
          0                 1           7            72   15     1       0.3223821271E+01      70   19    1         0.8972694869E+05      0.5401349797E+06
          0                 2           6            72   15     1      -0.2942230338E+00      70   19    1        -0.9023906224E+04      0.5505543966E+05
          0                 3           2            66   19     1      -0.3071065780E-01      29   81    3        -0.6354946775E+03      0.7884288272E+03
          0                 4           1            66   19     1      -0.1229895545E-03      29   81    3        -0.6351470347E+03      0.6351496283E+03

    ------------------------------------------------
       NWT REQUIRED            4 OUTER ITERATIONS 
       AND A TOTAL OF         16 INNER ITERATIONS.
    ------------------------------------------------

 NO OUTPUT CONTROL FOR STRESS PERIOD   28   TIME STEP    9
 
 SOLVING FOR HEAD 
                                                   Max.-Head-Change                         Max.-Flux-Residual
  Residual-Control   Outer-Iter.   Inner-Iter.     Column Row Layer    Maximum-Head-Change  Column Row Layer    Maximum-Flux-Residual          L2-NORM 
          0                 1           7            72   15     1       0.3042248322E+01      70   19    1         0.8264729466E+05      0.5298235023E+06
          0                 2           6            18   35     2      -0.1163120702E+01      66   19    1        -0.2165261598E+05      0.6234061919E+05
          0                 3           3            18   35     2       0.1028802853E+00      29   81    3        -0.9185394476E+03      0.1883229843E+04
          0                 4           2            26   26     1      -0.1193191451E-02      29   81    3        -0.9179952510E+03      0.9213430354E+03
          0                 5           1            26   26     1      -0.1074874611E-03      29   81    3        -0.9174496997E+03      0.9174782409E+03
          0                 6           1            29   81     3      -0.3244392683E-04      29   81    3        -0.9168886889E+03      0.9168900874E+03
          0                 7           1            29   81     3      -0.3242340522E-04      29   81    3        -0.9163148098E+03      0.9163159405E+03
          0                 8           1            29   81     3      -0.3240252044E-04      29   81    3        -0.9157317159E+03      0.9157328350E+03
          0                 9           1            29   81     3      -0.3238125700E-04      29   81    3        -0.9151400324E+03      0.9151411482E+03
          0                10           1            29   81     3      -0.3235960989E-04      29   81    3        -0.9145382312E+03      0.9145393455E+03
                                                   Max.-Head-Change                         Max.-Flux-Residual
  Residual-Control   Outer-Iter.   Inner-Iter.     Column Row Layer    Maximum-Head-Change  Column Row Layer    Maximum-Flux-Residual          L2-NORM 
          0                11           1            29   81     3      -0.3233757511E-04      29   81    3        -0.9139257379E+03      0.9139268512E+03
          0                12           1            29   81     3      -0.3231515516E-04      29   81    3        -0.9133023878E+03      0.9133035003E+03
          0                13           1            29   81     3      -0.3229235003E-04      29   81    3        -0.9126681500E+03      0.9126692617E+03
          0                14           1            29   81     3      -0.3226916024E-04      29   81    3        -0.9120230360E+03      0.9120241469E+03
          0                15           1            29   81     3      -0.3224558677E-04      29   81    3        -0.9113670711E+03      0.9113681813E+03
          0                16           1            29   81     3      -0.3222163213E-04      29   81    3        -0.9107002857E+03      0.9107013950E+03
          0                17           1            29   81     3      -0.3219729583E-04      29   81    3        -0.9100227116E+03      0.9100238202E+03
          0                18           1            29   81     3      -0.3217258036E-04      29   81    3        -0.9093343822E+03      0.9093354900E+03
          0                19           1            29   81     3      -0.3214748572E-04      29   81    3        -0.9086353311E+03      0.9086364381E+03
          0                20           1            29   81     3      -0.3212201491E-04      29   81    3        -0.9079255927E+03      0.9079266988E+03
                                                   Max.-Head-Change                         Max.-Flux-Residual
  Residual-Control   Outer-Iter.   Inner-Iter.     Column Row Layer    Maximum-Head-Change  Column Row Layer    Maximum-Flux-Residual          L2-NORM 
          0                21           1            29   81     3      -0.3209616693E-04      29   81    3        -0.9072052017E+03      0.9072063070E+03
          0                22           1            29   81     3      -0.3206994479E-04      29   81    3        -0.9064741935E+03      0.9064752979E+03
          0                23           1            29   81     3      -0.3204334898E-04      29   81    3        -0.9057326039E+03      0.9057337074E+03
          0                24           1            29   81     3      -0.3201638101E-04      29   81    3        -0.9049804690E+03      0.9049815716E+03
          0                25           1            29   81     3      -0.3198904187E-04      29   81    3        -0.9042178255E+03      0.9042189272E+03
          0                26           1            29   81     3      -0.3196133407E-04      29   81    3        -0.9034447108E+03      0.9034458116E+03
          0                27           1            29   81     3      -0.3193325760E-04      29   81    3        -0.9026611623E+03      0.9026622621E+03
          0                28           1            29   81     3      -0.3190481397E-04      29   81    3        -0.9018672181E+03      0.9018683171E+03
          0                29           1            29   81     3      -0.3187600518E-04      29   81    3        -0.9010629169E+03      0.9010640149E+03
          0                30           1            29   81     3      -0.3184683223E-04      29   81    3        -0.9002482975E+03      0.9002493945E+03
                                                   Max.-Head-Change                         Max.-Flux-Residual
  Residual-Control   Outer-Iter.   Inner-Iter.     Column Row Layer    Maximum-Head-Change  Column Row Layer    Maximum-Flux-Residual          L2-NORM 
          0                31           1            29   81     3      -0.3181729712E-04      29   81    3        -0.8994233994E+03      0.8994244955E+03
          0                32           1            29   81     3      -0.3178740035E-04      29   81    3        -0.8985882625E+03      0.8985893575E+03
          0                33           1            29   81     3      -0.3175714391E-04      29   81    3        -0.8977429271E+03      0.8977440211E+03
          0                34           1            29   81     3      -0.3172652932E-04      29   81    3        -0.8968874338E+03      0.8968885268E+03
          0                35           1            29   81     3      -0.3169555757E-04      29   81    3        -0.8960218239E+03      0.8960229158E+03
          0                36           1            29   81     3      -0.3166423066E-04      29   81    3        -0.8951461389E+03      0.8951472298E+03
          0                37           1            29   81     3      -0.3163255010E-04      29   81    3        -0.8942604208E+03      0.8942615106E+03
          0                38           2            29   81     3      -0.3470159957E-01      29   81    3        -0.8933661211E+03      0.8933672100E+03
          0                39           2            29   81     3       0.3148404693E-02      29   81    3         0.1032924131E+03      0.1096031884E+03

    ------------------------------------------------
       NWT REQUIRED           39 OUTER ITERATIONS 
       AND A TOTAL OF         55 INNER ITERATIONS.
    ------------------------------------------------

 NO OUTPUT CONTROL FOR STRESS PERIOD   28   TIME STEP   10
 
 SOLVING FOR HEAD 
                                                   Max.-Head-Change                         Max.-Flux-Residual
  Residual-Control   Outer-Iter.   Inner-Iter.     Column Row Layer    Maximum-Head-Change  Column Row Layer    Maximum-Flux-Residual          L2-NORM 
          0                 1           7            72   15     1       0.2878883237E+01      70   19    1         0.7639658901E+05      0.5208091551E+06
          0                 2           6            66   20     2       0.6158742243E+00      66   20    2         0.1148923308E+05      0.5466549032E+05
          0                 3           2            66   20     2      -0.5599694441E-01      66   20    2        -0.1136816545E+04      0.1791160768E+04
          0                 4           2            21   41     2      -0.1543570177E-02      21   41    2        -0.3463109466E+02      0.3475296408E+02

    ------------------------------------------------
       NWT REQUIRED            4 OUTER ITERATIONS 
       AND A TOTAL OF         17 INNER ITERATIONS.
    ------------------------------------------------

 NO OUTPUT CONTROL FOR STRESS PERIOD   28   TIME STEP   11
 
 SOLVING FOR HEAD 
                                                   Max.-Head-Change                         Max.-Flux-Residual
  Residual-Control   Outer-Iter.   Inner-Iter.     Column Row Layer    Maximum-Head-Change  Column Row Layer    Maximum-Flux-Residual          L2-NORM 
          0                 1           7            72   15     1       0.2731817572E+01      72   15    1         0.7197122952E+05      0.5136381172E+06
          0                 2           6            21   41     2      -0.6187310629E+01      21   41    2        -0.9343425187E+04      0.5318172657E+05
          0                 3           3            21   41     2       0.4899317058E+00      21   41    2         0.9098375154E+03      0.9956724393E+03
          0                 4           2            21   41     2       0.4927730018E-02      21   41    2         0.9021448551E+01      0.1089442021E+02

    ------------------------------------------------
       NWT REQUIRED            4 OUTER ITERATIONS 
       AND A TOTAL OF         18 INNER ITERATIONS.
    ------------------------------------------------

 OUTPUT CONTROL FOR STRESS PERIOD   28   TIME STEP   12
    SAVE BUDGET
 UBDSV1 SAVING "         STORAGE" ON UNIT  39 AT TIME STEP 12, STRESS PERIOD  28
 UBDSV2 SAVING "   CONSTANT HEAD" ON UNIT  39 AT TIME STEP 12, STRESS PERIOD  28
 UBDSV1 SAVING "FLOW RIGHT FACE " ON UNIT  39 AT TIME STEP 12, STRESS PERIOD  28
 UBDSV1 SAVING "FLOW FRONT FACE " ON UNIT  39 AT TIME STEP 12, STRESS PERIOD  28
 UBDSV1 SAVING "FLOW LOWER FACE " ON UNIT  39 AT TIME STEP 12, STRESS PERIOD  28
 UBDSV4 SAVING "           WELLS" ON UNIT  39 AT TIME STEP 12, STRESS PERIOD  28
 UBDSV3 SAVING "              ET" ON UNIT  39 AT TIME STEP 12, STRESS PERIOD  28
 UBDSV3 SAVING "        RECHARGE" ON UNIT  39 AT TIME STEP 12, STRESS PERIOD  28
1
  VOLUMETRIC BUDGET FOR ENTIRE MODEL AT END OF TIME STEP   12, STRESS PERIOD  28
  ------------------------------------------------------------------------------

     CUMULATIVE VOLUMES      L**3       RATES FOR THIS TIME STEP      L**3/T
     ------------------                 ------------------------

           IN:                                      IN:
           ---                                      ---
             STORAGE =161990017024.0000               STORAGE =    18332100.0000
       CONSTANT HEAD = 13557524480.0000         CONSTANT HEAD =     1514635.6250
               WELLS = 12534614016.0000                 WELLS =     1225642.0000
                  ET =           0.0000                    ET =           0.0000
            RECHARGE =167871021056.0000              RECHARGE =    28743986.0000

            TOTAL IN =355953180672.0000              TOTAL IN =    49816364.0000

          OUT:                                     OUT:
          ----                                     ----
             STORAGE = 22000625664.0000               STORAGE =     7220596.0000
       CONSTANT HEAD = 37015711744.0000         CONSTANT HEAD =     3609820.2500
               WELLS =286811947008.0000                 WELLS =    37989856.0000
                  ET = 10124907520.0000                    ET =      996093.7500
            RECHARGE =           0.0000              RECHARGE =           0.0000

           TOTAL OUT =355953213440.0000             TOTAL OUT =    49816364.0000

            IN - OUT =      -32768.0000              IN - OUT =           0.0000

 PERCENT DISCREPANCY =          -0.00     PERCENT DISCREPANCY =           0.00






         TIME SUMMARY AT END OF TIME STEP   12 IN STRESS PERIOD   28
                    SECONDS     MINUTES      HOURS       DAYS        YEARS
                    -----------------------------------------------------------
   TIME STEP LENGTH 2.62800E+06  43800.      730.00      30.417     8.32763E-02
 STRESS PERIOD TIME 3.15360E+07 5.25600E+05  8760.0      365.00     0.99932    
         TOTAL TIME 8.83613E+08 1.47269E+07 2.45448E+05  10227.      28.000    
1
1
                            STRESS PERIOD NO.   29, LENGTH =   366.0000    
                            -----------------------------------------------

                              NUMBER OF TIME STEPS =    12

                               MULTIPLIER FOR DELT =     1.000

                            INITIAL TIME STEP SIZE =   30.50000    

   1490 WELLS

 REUSING SURF FROM LAST STRESS PERIOD

 REUSING EVTR FROM LAST STRESS PERIOD

 REUSING EXDP FROM LAST STRESS PERIOD



                           RECHARGE
 READING ON UNIT   16 WITH FORMAT: (15F5.0)            


     63 TIME-VARIANT SPECIFIED-HEAD CELLS
 
 SOLVING FOR HEAD 
                                                   Max.-Head-Change                         Max.-Flux-Residual
  Residual-Control   Outer-Iter.   Inner-Iter.     Column Row Layer    Maximum-Head-Change  Column Row Layer    Maximum-Flux-Residual          L2-NORM 
          0                 1           8            62   94     3      -0.4827034562E+02      32   21    2         0.5194232000E+06      0.1421409326E+07
          0                 2           6            65    2     2      -0.3019040050E+02      59   87    3         0.2007278192E+06      0.2684622809E+06
          0                 3           3            65    2     2       0.9543626963E+00      31   26    2         0.2132040680E+04      0.3380281298E+04
          0                 4           2            65    2     2       0.5577016271E-01      65    2    2         0.2482136755E+02      0.3493015781E+02
          0                 5           2            65    2     2       0.3251853760E-02      65    2    3         0.2230512537E+01      0.3610204538E+01

    ------------------------------------------------
       NWT REQUIRED            5 OUTER ITERATIONS 
       AND A TOTAL OF         21 INNER ITERATIONS.
    ------------------------------------------------

 NO OUTPUT CONTROL FOR STRESS PERIOD   29   TIME STEP    1
 
 SOLVING FOR HEAD 
                                                   Max.-Head-Change                         Max.-Flux-Residual
  Residual-Control   Outer-Iter.   Inner-Iter.     Column Row Layer    Maximum-Head-Change  Column Row Layer    Maximum-Flux-Residual          L2-NORM 
          0                 1           7            65    2     2      -0.8058518436E+02      32   21    2         0.1830232296E+06      0.8551453109E+06
          0                 2           6            66    1     2      -0.5803684564E+02      31   26    2         0.2499993661E+05      0.9765558593E+05
          0                 3           3            66    1     2       0.1577095054E+01      28   22    1        -0.4344409451E+04      0.5428610513E+04
          0                 4           2            66    1     2       0.9923206880E-01      28   22    1        -0.3917027410E+03      0.3957081262E+03
          0                 5           2            66    1     2       0.6225564845E-02      28   22    1        -0.3566379641E+02      0.3601652879E+02

    ------------------------------------------------
       NWT REQUIRED            5 OUTER ITERATIONS 
       AND A TOTAL OF         20 INNER ITERATIONS.
    ------------------------------------------------

 NO OUTPUT CONTROL FOR STRESS PERIOD   29   TIME STEP    2
 
 SOLVING FOR HEAD 
                                                   Max.-Head-Change                         Max.-Flux-Residual
  Residual-Control   Outer-Iter.   Inner-Iter.     Column Row Layer    Maximum-Head-Change  Column Row Layer    Maximum-Flux-Residual          L2-NORM 
          0                 1           7            66    1     2      -0.1767188427E+02      59   87    2        -0.1408786044E+06      0.7127033906E+06
          0                 2           6            28   26     1      -0.5794425427E+00      28   26    1        -0.1771406970E+05      0.7903790200E+05
          0                 3           5            28   26     1       0.5198696611E-01      28   26    1         0.1748027165E+04      0.2845055435E+04
          0                 4           2            66    1     2       0.1940795044E-02      59   63    1        -0.2103912592E+01      0.3887546641E+01

    ------------------------------------------------
       NWT REQUIRED            4 OUTER ITERATIONS 
       AND A TOTAL OF         20 INNER ITERATIONS.
    ------------------------------------------------

 NO OUTPUT CONTROL FOR STRESS PERIOD   29   TIME STEP    3
 
 SOLVING FOR HEAD 
                                                   Max.-Head-Change                         Max.-Flux-Residual
  Residual-Control   Outer-Iter.   Inner-Iter.     Column Row Layer    Maximum-Head-Change  Column Row Layer    Maximum-Flux-Residual          L2-NORM 
          0                 1           7            59   87     2      -0.5038548487E+01      59   87    2        -0.1193989289E+06      0.6480898122E+06
          0                 2           6            36   32     1      -0.8964785095E+00      59   87    2         0.1140635883E+05      0.6712354296E+05
          0                 3           3            36   32     1       0.9447442263E-01      27   28    1         0.9502020053E+03      0.1528046765E+04
          0                 4           1            36   32     1       0.4936356759E-03      36   31    1        -0.9537240185E+01      0.1087011585E+02

    ------------------------------------------------
       NWT REQUIRED            4 OUTER ITERATIONS 
       AND A TOTAL OF         17 INNER ITERATIONS.
    ------------------------------------------------

 NO OUTPUT CONTROL FOR STRESS PERIOD   29   TIME STEP    4
 
 SOLVING FOR HEAD 
                                                   Max.-Head-Change                         Max.-Flux-Residual
  Residual-Control   Outer-Iter.   Inner-Iter.     Column Row Layer    Maximum-Head-Change  Column Row Layer    Maximum-Flux-Residual          L2-NORM 
          0                 1           7            59   87     2      -0.4560245462E+01      59   87    2        -0.1051139993E+06      0.6102747765E+06
          0                 2           6            65    6     2      -0.2837477206E+02      65    6    2        -0.1603383352E+05      0.6749253280E+05
          0                 3           3            65    6     2       0.2030997468E+01      65    6    3        -0.1557354799E+04      0.3048579881E+04
          0                 4           2            65    6     2       0.7742025020E-01      65    6    2         0.5142573709E+02      0.6164919345E+02
          0                 5           2            65    6     2       0.2944019604E-02      65    6    3         0.4208579481E+01      0.5387662249E+01

    ------------------------------------------------
       NWT REQUIRED            5 OUTER ITERATIONS 
       AND A TOTAL OF         20 INNER ITERATIONS.
    ------------------------------------------------

 NO OUTPUT CONTROL FOR STRESS PERIOD   29   TIME STEP    5
 
 SOLVING FOR HEAD 
                                                   Max.-Head-Change                         Max.-Flux-Residual
  Residual-Control   Outer-Iter.   Inner-Iter.     Column Row Layer    Maximum-Head-Change  Column Row Layer    Maximum-Flux-Residual          L2-NORM 
          0                 1           7            65    6     2      -0.1165576953E+02      59   87    2        -0.9510460618E+05      0.5832495647E+06
          0                 2           6            65    3     2      -0.2377892585E+02      28   24    2         0.2170902568E+05      0.6620089741E+05
          0                 3           3            65    3     2       0.1372249557E+01      59   87    2         0.4196325391E+04      0.6123788917E+04
          0                 4           2            65    3     2       0.7007259666E-01      24   14    1        -0.2851636335E+03      0.3345645979E+03
          0                 5           2            65    3     2       0.3568092350E-02      24   14    1        -0.2564625069E+02      0.2968165757E+02

    ------------------------------------------------
       NWT REQUIRED            5 OUTER ITERATIONS 
       AND A TOTAL OF         20 INNER ITERATIONS.
    ------------------------------------------------

 NO OUTPUT CONTROL FOR STRESS PERIOD   29   TIME STEP    6
 
 SOLVING FOR HEAD 
                                                   Max.-Head-Change                         Max.-Flux-Residual
  Residual-Control   Outer-Iter.   Inner-Iter.     Column Row Layer    Maximum-Head-Change  Column Row Layer    Maximum-Flux-Residual          L2-NORM 
          0                 1           7            59   87     2      -0.1338125335E+02      59   87    3        -0.7499582596E+05      0.5625194289E+06
          0                 2           6            92   77     2      -0.1973116292E+02      16    3    2         0.7609514586E+04      0.5808249090E+05
          0                 3           2            65    5     2       0.3588370561E+00      16    3    1        -0.3720671429E+04      0.3935408292E+04
          0                 4           2            65    5     2       0.1733316545E-01      16    3    1        -0.3352015595E+03      0.3363621460E+03
          0                 5           2            92   77     2       0.1172294865E-02      16    3    1        -0.3013712770E+02      0.3023990965E+02

    ------------------------------------------------
       NWT REQUIRED            5 OUTER ITERATIONS 
       AND A TOTAL OF         19 INNER ITERATIONS.
    ------------------------------------------------

 NO OUTPUT CONTROL FOR STRESS PERIOD   29   TIME STEP    7
 
 SOLVING FOR HEAD 
                                                   Max.-Head-Change                         Max.-Flux-Residual
  Residual-Control   Outer-Iter.   Inner-Iter.     Column Row Layer    Maximum-Head-Change  Column Row Layer    Maximum-Flux-Residual          L2-NORM 
          0                 1           7            92   77     2      -0.5245736756E+02      59   87    3        -0.1083174337E+06      0.5515050638E+06
          0                 2           6            92   77     2       0.1000084556E+02      28   24    1        -0.2006756828E+05      0.6547752200E+05
          0                 3           3            92   77     2       0.3858309976E+00      60   82    1        -0.3725188226E+04      0.5795712804E+04
          0                 4           2            92   77     2       0.1458025218E-01      60   82    1        -0.3356691227E+03      0.4715363186E+03
          0                 5           1            17   28     2      -0.5803988595E-03      60   82    1        -0.3021541299E+02      0.4243576539E+02

    ------------------------------------------------
       NWT REQUIRED            5 OUTER ITERATIONS 
       AND A TOTAL OF         19 INNER ITERATIONS.
    ------------------------------------------------

 NO OUTPUT CONTROL FOR STRESS PERIOD   29   TIME STEP    8
 
 SOLVING FOR HEAD 
                                                   Max.-Head-Change                         Max.-Flux-Residual
  Residual-Control   Outer-Iter.   Inner-Iter.     Column Row Layer    Maximum-Head-Change  Column Row Layer    Maximum-Flux-Residual          L2-NORM 
          0                 1           7            59   87     3      -0.3757112657E+01      59   87    3        -0.9123231590E+05      0.5379091984E+06
          0                 2           6            69   21     1      -0.2193191200E+01      59   86    3         0.4501642583E+05      0.7267794688E+05
          0                 3           3            69   21     1       0.1873382508E+00      23   11    1        -0.2951414646E+04      0.3451728184E+04
          0                 4           2            23   11     1      -0.4611773224E-02      23   11    1        -0.2658273372E+03      0.2659063470E+03

    ------------------------------------------------
       NWT REQUIRED            4 OUTER ITERATIONS 
       AND A TOTAL OF         18 INNER ITERATIONS.
    ------------------------------------------------

 NO OUTPUT CONTROL FOR STRESS PERIOD   29   TIME STEP    9
 
 SOLVING FOR HEAD 
                                                   Max.-Head-Change                         Max.-Flux-Residual
  Residual-Control   Outer-Iter.   Inner-Iter.     Column Row Layer    Maximum-Head-Change  Column Row Layer    Maximum-Flux-Residual          L2-NORM 
          0                 1           7            69   21     1      -0.3899429451E+01      59   87    3        -0.7658315476E+05      0.5257656396E+06
          0                 2           6            28   23     1      -0.3315976828E+00      28   23    1        -0.1438515234E+05      0.5685494475E+05
          0                 3           2            18   10     1      -0.3574699023E-01      18   10    1        -0.3294891873E+04      0.4004608478E+04
          0                 4           2            18   10     1      -0.3217788375E-02      30   47    3         0.1427045890E+04      0.1457658510E+04
          0                 5           1            18   10     1      -0.2889812798E-03      30   47    3         0.1425582195E+04      0.1425845172E+04
          0                 6           1            30   47     3       0.4385652620E-04      30   47    3         0.1423685900E+04      0.1423700240E+04
          0                 7           1            30   47     3       0.4380811506E-04      30   47    3         0.1421928465E+04      0.1421940724E+04
          0                 8           1            30   47     3       0.4376029741E-04      30   47    3         0.1420218331E+04      0.1420230546E+04
          0                 9           1            30   47     3       0.4371286136E-04      30   47    3         0.1418526729E+04      0.1418538925E+04
          0                10           1            30   47     3       0.4366574355E-04      30   47    3         0.1416847492E+04      0.1416859673E+04
                                                   Max.-Head-Change                         Max.-Flux-Residual
  Residual-Control   Outer-Iter.   Inner-Iter.     Column Row Layer    Maximum-Head-Change  Column Row Layer    Maximum-Flux-Residual          L2-NORM 
          0                11           1            30   47     3       0.4361892177E-04      30   47    3         0.1415178791E+04      0.1415190957E+04
          0                12           1            30   47     3       0.4357238769E-04      30   47    3         0.1413519981E+04      0.1413532133E+04
          0                13           1            30   47     3       0.4352613685E-04      30   47    3         0.1411870806E+04      0.1411882944E+04
          0                14           1            30   47     3       0.4348016797E-04      30   47    3         0.1410231148E+04      0.1410243272E+04
          0                15           1            30   47     3       0.4343447932E-04      30   47    3         0.1408600940E+04      0.1408613050E+04
          0                16           1            30   47     3       0.4338906962E-04      30   47    3         0.1406980136E+04      0.1406992232E+04
          0                17           1            30   47     3       0.4334393826E-04      30   47    3         0.1405368697E+04      0.1405380779E+04
          0                18           1            30   47     3       0.4329908375E-04      30   47    3         0.1403766587E+04      0.1403778656E+04
          0                19           1            30   47     3       0.4325450549E-04      30   47    3         0.1402173772E+04      0.1402185828E+04
          0                20           1            30   47     3       0.4321020219E-04      30   47    3         0.1400590219E+04      0.1400602260E+04
                                                   Max.-Head-Change                         Max.-Flux-Residual
  Residual-Control   Outer-Iter.   Inner-Iter.     Column Row Layer    Maximum-Head-Change  Column Row Layer    Maximum-Flux-Residual          L2-NORM 
          0                21           1            30   47     3       0.4316617326E-04      30   47    3         0.1399015892E+04      0.1399027920E+04
          0                22           1            30   47     3       0.4312241764E-04      30   47    3         0.1397450760E+04      0.1397462775E+04
          0                23           1            30   47     3       0.4307893451E-04      30   47    3         0.1395894788E+04      0.1395906790E+04
          0                24           1            30   47     3       0.4303572258E-04      30   47    3         0.1394347945E+04      0.1394359934E+04
          0                25           1            30   47     3       0.4299278125E-04      30   47    3         0.1392810198E+04      0.1392822173E+04
          0                26           1            30   47     3       0.4295010993E-04      30   47    3         0.1391281514E+04      0.1391293476E+04
          0                27           1            30   47     3       0.4290770687E-04      30   47    3         0.1389761862E+04      0.1389773811E+04
          0                28           1            30   47     3       0.4286557171E-04      30   47    3         0.1388251209E+04      0.1388263145E+04
          0                29           1            30   47     3       0.4282370383E-04      30   47    3         0.1386749524E+04      0.1386761447E+04
          0                30           3            30   47     3       0.3972827612E-01      30   47    3         0.1385256199E+04      0.1385268110E+04
          0                31           1            28   44     3       0.1263017494E-03      30   47    3        -0.3011419937E+01      0.6797486815E+01

    ------------------------------------------------
       NWT REQUIRED           31 OUTER ITERATIONS 
       AND A TOTAL OF         46 INNER ITERATIONS.
    ------------------------------------------------

 NO OUTPUT CONTROL FOR STRESS PERIOD   29   TIME STEP   10
 
 SOLVING FOR HEAD 
                                                   Max.-Head-Change                         Max.-Flux-Residual
  Residual-Control   Outer-Iter.   Inner-Iter.     Column Row Layer    Maximum-Head-Change  Column Row Layer    Maximum-Flux-Residual          L2-NORM 
          0                 1           7            59   87     2      -0.2774705182E+01      59   87    3        -0.6496619048E+05      0.5172115779E+06
          0                 2           6            23   46     2      -0.2460452810E+01      34   26    2         0.1636880037E+05      0.5733337578E+05
          0                 3           3            23   46     2       0.2090609362E+00      18   10    1         0.7817174117E+03      0.1221250120E+04
          0                 4           2            23   46     2       0.1182802556E-02      23   46    2         0.3362896116E+01      0.4275281801E+01

    ------------------------------------------------
       NWT REQUIRED            4 OUTER ITERATIONS 
       AND A TOTAL OF         18 INNER ITERATIONS.
    ------------------------------------------------

 NO OUTPUT CONTROL FOR STRESS PERIOD   29   TIME STEP   11
 
 SOLVING FOR HEAD 
                                                   Max.-Head-Change                         Max.-Flux-Residual
  Residual-Control   Outer-Iter.   Inner-Iter.     Column Row Layer    Maximum-Head-Change  Column Row Layer    Maximum-Flux-Residual          L2-NORM 
          0                 1           7            59   87     2      -0.2542262662E+01      59   87    3        -0.5693534162E+05      0.5090760568E+06
          0                 2           5            22   44     2      -0.8472687974E+00      73   14    2         0.1318920303E+05      0.5711383222E+05
          0                 3           3            22   44     2       0.7125158109E-01      27   21    1        -0.5610198913E+04      0.6279120698E+04
          0                 4           2            27   21     1      -0.5313482526E-02      27   21    1        -0.5058164906E+03      0.5471881688E+03

    ------------------------------------------------
       NWT REQUIRED            4 OUTER ITERATIONS 
       AND A TOTAL OF         17 INNER ITERATIONS.
    ------------------------------------------------

 OUTPUT CONTROL FOR STRESS PERIOD   29   TIME STEP   12
    SAVE BUDGET
 UBDSV1 SAVING "         STORAGE" ON UNIT  39 AT TIME STEP 12, STRESS PERIOD  29
 UBDSV2 SAVING "   CONSTANT HEAD" ON UNIT  39 AT TIME STEP 12, STRESS PERIOD  29
 UBDSV1 SAVING "FLOW RIGHT FACE " ON UNIT  39 AT TIME STEP 12, STRESS PERIOD  29
 UBDSV1 SAVING "FLOW FRONT FACE " ON UNIT  39 AT TIME STEP 12, STRESS PERIOD  29
 UBDSV1 SAVING "FLOW LOWER FACE " ON UNIT  39 AT TIME STEP 12, STRESS PERIOD  29
 UBDSV4 SAVING "           WELLS" ON UNIT  39 AT TIME STEP 12, STRESS PERIOD  29
 UBDSV3 SAVING "              ET" ON UNIT  39 AT TIME STEP 12, STRESS PERIOD  29
 UBDSV3 SAVING "        RECHARGE" ON UNIT  39 AT TIME STEP 12, STRESS PERIOD  29

 INTERPOLATION FOR HEAD OBS# 8210, ID 2355-30-1    CHANGED BECAUSE AT LEAST ONE
 NEIGHBORING CELL REQUIRED FOR INTERPOLATION IS DRY OR INACTIVE (OBS2BAS7SE)

 INTERPOLATION FOR HEAD OBS# 8232, ID 1427-30-11   CHANGED BECAUSE AT LEAST ONE
 NEIGHBORING CELL REQUIRED FOR INTERPOLATION IS DRY OR INACTIVE (OBS2BAS7SE)
1
  VOLUMETRIC BUDGET FOR ENTIRE MODEL AT END OF TIME STEP   12, STRESS PERIOD  29
  ------------------------------------------------------------------------------

     CUMULATIVE VOLUMES      L**3       RATES FOR THIS TIME STEP      L**3/T
     ------------------                 ------------------------

           IN:                                      IN:
           ---                                      ---
             STORAGE =171456839680.0000               STORAGE =    24764706.0000
       CONSTANT HEAD = 14140759040.0000         CONSTANT HEAD =     1632535.2500
               WELLS = 12983199744.0000                 WELLS =     1225642.0000
                  ET =           0.0000                    ET =           0.0000
            RECHARGE =173939916800.0000              RECHARGE =    16581641.0000

            TOTAL IN =372520714240.0000              TOTAL IN =    44204528.0000

          OUT:                                     OUT:
          ----                                     ----
             STORAGE = 22829142016.0000               STORAGE =     1299107.6250
       CONSTANT HEAD = 38249463808.0000         CONSTANT HEAD =     3283910.0000
               WELLS =300966150144.0000                 WELLS =    38673048.0000
                  ET = 10475833344.0000                    ET =      948532.1875
            RECHARGE =           0.0000              RECHARGE =           0.0000

           TOTAL OUT =372520583168.0000             TOTAL OUT =    44204596.0000

            IN - OUT =      131072.0000              IN - OUT =         -68.0000

 PERCENT DISCREPANCY =           0.00     PERCENT DISCREPANCY =          -0.00






         TIME SUMMARY AT END OF TIME STEP   12 IN STRESS PERIOD   29
                    SECONDS     MINUTES      HOURS       DAYS        YEARS
                    -----------------------------------------------------------
   TIME STEP LENGTH 2.63520E+06  43920.      732.00      30.500     8.35044E-02
 STRESS PERIOD TIME 3.16224E+07 5.27040E+05  8784.0      366.00      1.0021    
         TOTAL TIME 9.15236E+08 1.52539E+07 2.54232E+05  10593.      29.002    
1
1
                            STRESS PERIOD NO.   30, LENGTH =   365.0000    
                            -----------------------------------------------

                              NUMBER OF TIME STEPS =    12

                               MULTIPLIER FOR DELT =     1.000

                            INITIAL TIME STEP SIZE =   30.41667    

   1520 WELLS

 REUSING SURF FROM LAST STRESS PERIOD

 REUSING EVTR FROM LAST STRESS PERIOD

 REUSING EXDP FROM LAST STRESS PERIOD



                           RECHARGE
 READING ON UNIT   16 WITH FORMAT: (15F5.0)            


     63 TIME-VARIANT SPECIFIED-HEAD CELLS
 
 SOLVING FOR HEAD 
                                                   Max.-Head-Change                         Max.-Flux-Residual
  Residual-Control   Outer-Iter.   Inner-Iter.     Column Row Layer    Maximum-Head-Change  Column Row Layer    Maximum-Flux-Residual          L2-NORM 
          0                 1           7            23   46     2       0.4595414279E+02      32   21    2        -0.4880958081E+06      0.1151896173E+07
          0                 2           6            23   46     2      -0.3076750892E+02      23   46    2        -0.9032494024E+06      0.9176474049E+06
          0                 3           5            23   47     2       0.5262696768E+01      23   46    2        -0.1172476226E+06      0.1312568255E+06
          0                 4           6            23   47     2       0.9529378845E+00      23   46    2        -0.6578709841E+04      0.1006393136E+05
          0                 5           3            23   47     2       0.9268545471E-01      23   47    2         0.3794955958E+03      0.7211064793E+03
          0                 6           2            23   47     2       0.8691824542E-02      23   47    2         0.3552338385E+02      0.6613991216E+02

    ------------------------------------------------
       NWT REQUIRED            6 OUTER ITERATIONS 
       AND A TOTAL OF         29 INNER ITERATIONS.
    ------------------------------------------------

 NO OUTPUT CONTROL FOR STRESS PERIOD   30   TIME STEP    1
 
 SOLVING FOR HEAD 
                                                   Max.-Head-Change                         Max.-Flux-Residual
  Residual-Control   Outer-Iter.   Inner-Iter.     Column Row Layer    Maximum-Head-Change  Column Row Layer    Maximum-Flux-Residual          L2-NORM 
          0                 1           7            58   89     3      -0.5802792094E+01      32   21    2        -0.1953270205E+06      0.7038394370E+06
          0                 2           5            66    4     2      -0.3688385116E+01      55   82    2        -0.2885152135E+05      0.8051349459E+05
          0                 3           3            59   86     2       0.1184436957E+00      66  101    1        -0.1741844470E+04      0.2925807485E+04
          0                 4           2            66    4     2       0.6865448676E-02      66  101    1        -0.1568959571E+03      0.1570669507E+03

    ------------------------------------------------
       NWT REQUIRED            4 OUTER ITERATIONS 
       AND A TOTAL OF         17 INNER ITERATIONS.
    ------------------------------------------------

 NO OUTPUT CONTROL FOR STRESS PERIOD   30   TIME STEP    2
 
 SOLVING FOR HEAD 
                                                   Max.-Head-Change                         Max.-Flux-Residual
  Residual-Control   Outer-Iter.   Inner-Iter.     Column Row Layer    Maximum-Head-Change  Column Row Layer    Maximum-Flux-Residual          L2-NORM 
          0                 1           7            58   89     3      -0.5114423361E+01      58   89    3        -0.1215152266E+06      0.6208123484E+06
          0                 2           5            66  101     1      -0.3104306900E+01      58   89    3         0.1171500241E+05      0.6485190617E+05
          0                 3           2            66  101     1       0.2463995815E+00      24   22    1        -0.1905352605E+04      0.2287258707E+04
          0                 4           2            66  101     1       0.2602298635E-02      24   22    1        -0.1715583288E+03      0.1875948178E+03

    ------------------------------------------------
       NWT REQUIRED            4 OUTER ITERATIONS 
       AND A TOTAL OF         16 INNER ITERATIONS.
    ------------------------------------------------

 NO OUTPUT CONTROL FOR STRESS PERIOD   30   TIME STEP    3
 
 SOLVING FOR HEAD 
                                                   Max.-Head-Change                         Max.-Flux-Residual
  Residual-Control   Outer-Iter.   Inner-Iter.     Column Row Layer    Maximum-Head-Change  Column Row Layer    Maximum-Flux-Residual          L2-NORM 
          0                 1           7            58   89     3      -0.4563457633E+01      58   89    3        -0.1070516693E+06      0.5845857180E+06
          0                 2           5            88   67     1      -0.1089498405E+02      55   83    2        -0.2020925026E+05      0.6786876222E+05
          0                 3           2            88   67     1       0.6681491371E+00      24   22    1         0.8999738892E+03      0.1741502619E+04
          0                 4           2            88   67     1       0.1967929404E-01      88   67    1         0.2629295154E+02      0.2636868606E+02
          0                 5           1            88   67     1       0.5772918487E-03      88   67    1         0.7721709106E+00      0.8042561642E+00

    ------------------------------------------------
       NWT REQUIRED            5 OUTER ITERATIONS 
       AND A TOTAL OF         17 INNER ITERATIONS.
    ------------------------------------------------

 NO OUTPUT CONTROL FOR STRESS PERIOD   30   TIME STEP    4
 
 SOLVING FOR HEAD 
                                                   Max.-Head-Change                         Max.-Flux-Residual
  Residual-Control   Outer-Iter.   Inner-Iter.     Column Row Layer    Maximum-Head-Change  Column Row Layer    Maximum-Flux-Residual          L2-NORM 
          0                 1           7            88   67     1      -0.4953441461E+01      58   89    3        -0.9476322918E+05      0.5634580266E+06
          0                 2           5            21   40     2      -0.3265262490E+01      58   89    3         0.9292573472E+04      0.5932507595E+05
          0                 3           2            21   40     2       0.2592563725E+00      14   13    1        -0.2950070596E+04      0.3336292532E+04
          0                 4           2            21   40     2       0.3068072217E-02      14   13    1        -0.2656676384E+03      0.2853691976E+03

    ------------------------------------------------
       NWT REQUIRED            4 OUTER ITERATIONS 
       AND A TOTAL OF         16 INNER ITERATIONS.
    ------------------------------------------------

 NO OUTPUT CONTROL FOR STRESS PERIOD   30   TIME STEP    5
 
 SOLVING FOR HEAD 
                                                   Max.-Head-Change                         Max.-Flux-Residual
  Residual-Control   Outer-Iter.   Inner-Iter.     Column Row Layer    Maximum-Head-Change  Column Row Layer    Maximum-Flux-Residual          L2-NORM 
          0                 1           7            21   40     2      -0.3623370143E+01      58   89    3        -0.8330893305E+05      0.5487201477E+06
          0                 2           5            58   89     3       0.3151620844E+00      29   28    2         0.1020556100E+05      0.5865140108E+05
          0                 3           2            21    6     1       0.2667101739E-01      23   21    1         0.9542558376E+03      0.1788133692E+04
          0                 4           1            92   77     2       0.6271301658E-04      29   32    2         0.7857160856E+00      0.2766693349E+01

    ------------------------------------------------
       NWT REQUIRED            4 OUTER ITERATIONS 
       AND A TOTAL OF         15 INNER ITERATIONS.
    ------------------------------------------------

 NO OUTPUT CONTROL FOR STRESS PERIOD   30   TIME STEP    6
 
 SOLVING FOR HEAD 
                                                   Max.-Head-Change                         Max.-Flux-Residual
  Residual-Control   Outer-Iter.   Inner-Iter.     Column Row Layer    Maximum-Head-Change  Column Row Layer    Maximum-Flux-Residual          L2-NORM 
          0                 1           7            19   37     2      -0.3363774501E+01      58   89    3        -0.7418686638E+05      0.5384985571E+06
          0                 2           5            22   43     2      -0.1469832669E+01      26   20    2         0.1283231019E+05      0.5809426000E+05
          0                 3           2            22   43     2       0.1194976657E+00      29   28    1         0.8931354718E+03      0.1121335534E+04
          0                 4           2            22   43     2       0.1172059642E-02      22   43    2         0.1923201805E+01      0.4096044294E+01

    ------------------------------------------------
       NWT REQUIRED            4 OUTER ITERATIONS 
       AND A TOTAL OF         16 INNER ITERATIONS.
    ------------------------------------------------

 NO OUTPUT CONTROL FOR STRESS PERIOD   30   TIME STEP    7
 
 SOLVING FOR HEAD 
                                                   Max.-Head-Change                         Max.-Flux-Residual
  Residual-Control   Outer-Iter.   Inner-Iter.     Column Row Layer    Maximum-Head-Change  Column Row Layer    Maximum-Flux-Residual          L2-NORM 
          0                 1           7            22   43     2      -0.3019620478E+01      58   89    3        -0.6683574561E+05      0.5305698127E+06
          0                 2           5            22    5     1      -0.4023622691E+00      32   26    2         0.2463587305E+05      0.6310274167E+05
          0                 3           2            22    5     1       0.3558717160E-01      27   23    1         0.1233459975E+04      0.1857436025E+04
          0                 4           1            22    5     1       0.8533668605E-04      58   88    3        -0.2764410064E+01      0.4296053080E+01

    ------------------------------------------------
       NWT REQUIRED            4 OUTER ITERATIONS 
       AND A TOTAL OF         15 INNER ITERATIONS.
    ------------------------------------------------

 NO OUTPUT CONTROL FOR STRESS PERIOD   30   TIME STEP    8
 
 SOLVING FOR HEAD 
                                                   Max.-Head-Change                         Max.-Flux-Residual
  Residual-Control   Outer-Iter.   Inner-Iter.     Column Row Layer    Maximum-Head-Change  Column Row Layer    Maximum-Flux-Residual          L2-NORM 
          0                 1           7            58   89     3      -0.2676311509E+01      58   89    3        -0.6084500675E+05      0.5240170270E+06
          0                 2           5            35   17     2      -0.2914904664E+01      25   22    2         0.1767440950E+05      0.5659399072E+05
          0                 3           2            35   17     2       0.2198511574E+00      36   24    1         0.5928558678E+03      0.9591634750E+03
          0                 4           2            35   17     2       0.3409123662E-02      43   36    1        -0.7681276679E+01      0.1325343620E+02

    ------------------------------------------------
       NWT REQUIRED            4 OUTER ITERATIONS 
       AND A TOTAL OF         16 INNER ITERATIONS.
    ------------------------------------------------

 NO OUTPUT CONTROL FOR STRESS PERIOD   30   TIME STEP    9
 
 SOLVING FOR HEAD 
                                                   Max.-Head-Change                         Max.-Flux-Residual
  Residual-Control   Outer-Iter.   Inner-Iter.     Column Row Layer    Maximum-Head-Change  Column Row Layer    Maximum-Flux-Residual          L2-NORM 
          0                 1           7            58   89     3      -0.2440439288E+01      58   89    3        -0.5542713171E+05      0.5189345824E+06
          0                 2           6            33   27     1      -0.3957976254E+00      33   27    1        -0.1045020419E+05      0.5436380849E+05
          0                 3           3            15   26     2      -0.6245390366E-01      15   26    2        -0.2632080702E+04      0.3255356630E+04
          0                 4           2            15   26     2      -0.5635888591E-02      15   26    2        -0.2374167863E+03      0.2739595659E+03

    ------------------------------------------------
       NWT REQUIRED            4 OUTER ITERATIONS 
       AND A TOTAL OF         18 INNER ITERATIONS.
    ------------------------------------------------

 NO OUTPUT CONTROL FOR STRESS PERIOD   30   TIME STEP   10
 
 SOLVING FOR HEAD 
                                                   Max.-Head-Change                         Max.-Flux-Residual
  Residual-Control   Outer-Iter.   Inner-Iter.     Column Row Layer    Maximum-Head-Change  Column Row Layer    Maximum-Flux-Residual          L2-NORM 
          0                 1           7            58   89     3      -0.2264388981E+01      58   89    3        -0.5097077432E+05      0.5142281432E+06
          0                 2           5            70   19     1      -0.1717041979E+01      70   19    1        -0.1284382787E+05      0.5684904935E+05
          0                 3           3            70   19     1       0.1496641879E+00      21    5    1        -0.1575754839E+04      0.2876707271E+04
          0                 4           2            21    5     1      -0.3292010536E-02      21    5    1        -0.1419037839E+03      0.1614930844E+03

    ------------------------------------------------
       NWT REQUIRED            4 OUTER ITERATIONS 
       AND A TOTAL OF         17 INNER ITERATIONS.
    ------------------------------------------------

 NO OUTPUT CONTROL FOR STRESS PERIOD   30   TIME STEP   11
 
 SOLVING FOR HEAD 
                                                   Max.-Head-Change                         Max.-Flux-Residual
  Residual-Control   Outer-Iter.   Inner-Iter.     Column Row Layer    Maximum-Head-Change  Column Row Layer    Maximum-Flux-Residual          L2-NORM 
          0                 1           7            22   42     2      -0.2598745672E+01      58   89    3        -0.4729062440E+05      0.5111777102E+06
          0                 2           5            66   45     1      -0.5620685504E+00      26   22    2         0.8386847094E+04      0.5333629267E+05
          0                 3           2            66   45     1       0.1288874970E+00      66   45    1         0.2011511207E+04      0.2729309791E+04
          0                 4           2            66   46     1      -0.1352965204E-02      66   46    1        -0.1241758749E+03      0.1400797743E+03

    ------------------------------------------------
       NWT REQUIRED            4 OUTER ITERATIONS 
       AND A TOTAL OF         16 INNER ITERATIONS.
    ------------------------------------------------

 OUTPUT CONTROL FOR STRESS PERIOD   30   TIME STEP   12
    SAVE BUDGET
 UBDSV1 SAVING "         STORAGE" ON UNIT  39 AT TIME STEP 12, STRESS PERIOD  30
 UBDSV2 SAVING "   CONSTANT HEAD" ON UNIT  39 AT TIME STEP 12, STRESS PERIOD  30
 UBDSV1 SAVING "FLOW RIGHT FACE " ON UNIT  39 AT TIME STEP 12, STRESS PERIOD  30
 UBDSV1 SAVING "FLOW FRONT FACE " ON UNIT  39 AT TIME STEP 12, STRESS PERIOD  30
 UBDSV1 SAVING "FLOW LOWER FACE " ON UNIT  39 AT TIME STEP 12, STRESS PERIOD  30
 UBDSV4 SAVING "           WELLS" ON UNIT  39 AT TIME STEP 12, STRESS PERIOD  30
 UBDSV3 SAVING "              ET" ON UNIT  39 AT TIME STEP 12, STRESS PERIOD  30
 UBDSV3 SAVING "        RECHARGE" ON UNIT  39 AT TIME STEP 12, STRESS PERIOD  30

 INTERPOLATION FOR HEAD OBS# 8283, ID 2927-31-29   CHANGED BECAUSE AT LEAST ONE
 NEIGHBORING CELL REQUIRED FOR INTERPOLATION IS DRY OR INACTIVE (OBS2BAS7SE)

 INTERPOLATION FOR HEAD OBS# 8288, ID 2615-31-1    CHANGED BECAUSE AT LEAST ONE
 NEIGHBORING CELL REQUIRED FOR INTERPOLATION IS DRY OR INACTIVE (OBS2BAS7SE)
1
  VOLUMETRIC BUDGET FOR ENTIRE MODEL AT END OF TIME STEP   12, STRESS PERIOD  30
  ------------------------------------------------------------------------------

     CUMULATIVE VOLUMES      L**3       RATES FOR THIS TIME STEP      L**3/T
     ------------------                 ------------------------

           IN:                                      IN:
           ---                                      ---
             STORAGE =181412741120.0000               STORAGE =    26711654.0000
       CONSTANT HEAD = 14722955264.0000         CONSTANT HEAD =     1597655.1250
               WELLS = 13430556672.0000                 WELLS =     1225642.0000
                  ET =           0.0000                    ET =           0.0000
            RECHARGE =180062683136.0000              RECHARGE =    16774495.0000

            TOTAL IN =389628952576.0000              TOTAL IN =    46309448.0000

          OUT:                                     OUT:
          ----                                     ----
             STORAGE = 23266510848.0000               STORAGE =      764599.2500
       CONSTANT HEAD = 39427731456.0000         CONSTANT HEAD =     3186821.5000
               WELLS =316173778944.0000                 WELLS =    41665260.0000
                  ET = 10760528896.0000                    ET =      692770.0000
            RECHARGE =           0.0000              RECHARGE =           0.0000

           TOTAL OUT =389628559360.0000             TOTAL OUT =    46309452.0000

            IN - OUT =      393216.0000              IN - OUT =          -4.0000

 PERCENT DISCREPANCY =           0.00     PERCENT DISCREPANCY =          -0.00






         TIME SUMMARY AT END OF TIME STEP   12 IN STRESS PERIOD   30
                    SECONDS     MINUTES      HOURS       DAYS        YEARS
                    -----------------------------------------------------------
   TIME STEP LENGTH 2.62800E+06  43800.      730.00      30.417     8.32763E-02
 STRESS PERIOD TIME 3.15360E+07 5.25600E+05  8760.0      365.00     0.99932    
         TOTAL TIME 9.46772E+08 1.57795E+07 2.62992E+05  10958.      30.001    
1
1
                            STRESS PERIOD NO.   31, LENGTH =   365.0000    
                            -----------------------------------------------

                              NUMBER OF TIME STEPS =    12

                               MULTIPLIER FOR DELT =     1.000

                            INITIAL TIME STEP SIZE =   30.41667    

   1647 WELLS

 REUSING SURF FROM LAST STRESS PERIOD

 REUSING EVTR FROM LAST STRESS PERIOD

 REUSING EXDP FROM LAST STRESS PERIOD



                           RECHARGE
 READING ON UNIT   16 WITH FORMAT: (15F5.0)            


     63 TIME-VARIANT SPECIFIED-HEAD CELLS
 
 SOLVING FOR HEAD 
                                                   Max.-Head-Change                         Max.-Flux-Residual
  Residual-Control   Outer-Iter.   Inner-Iter.     Column Row Layer    Maximum-Head-Change  Column Row Layer    Maximum-Flux-Residual          L2-NORM 
          0                 1           7            62   96     3      -0.1487527360E+03      32   21    2         0.4695664299E+06      0.1327640036E+07
          0                 2           6            62   95     3       0.1459523061E+02      62   95    3         0.5974500532E+05      0.1386683675E+06
          0                 3           3            36   19     2      -0.1597611161E+00      36   19    2        -0.5305489548E+04      0.5793128897E+04
          0                 4           2            36   19     2      -0.1442190521E-01      36   19    2        -0.4786664143E+03      0.5164325795E+03
          0                 5           2            36   19     2      -0.1297381334E-02      36   19    2        -0.4305355249E+02      0.4644732473E+02

    ------------------------------------------------
       NWT REQUIRED            5 OUTER ITERATIONS 
       AND A TOTAL OF         20 INNER ITERATIONS.
    ------------------------------------------------

 NO OUTPUT CONTROL FOR STRESS PERIOD   31   TIME STEP    1
 
 SOLVING FOR HEAD 
                                                   Max.-Head-Change                         Max.-Flux-Residual
  Residual-Control   Outer-Iter.   Inner-Iter.     Column Row Layer    Maximum-Head-Change  Column Row Layer    Maximum-Flux-Residual          L2-NORM 
          0                 1           7            63   96     3      -0.2506853343E+02      62   87    1        -0.2148799553E+06      0.7378740387E+06
          0                 2           5            22   41     2      -0.2906045056E+01      62   87    1         0.1448948591E+05      0.7537042810E+05
          0                 3           3            36   19     2       0.5733364054E+00      77   61    1        -0.2433154353E+04      0.4326401536E+04
          0                 4           2            77   61     1      -0.7595339463E-02      77   61    1        -0.2192558395E+03      0.2901571618E+03

    ------------------------------------------------
       NWT REQUIRED            4 OUTER ITERATIONS 
       AND A TOTAL OF         17 INNER ITERATIONS.
    ------------------------------------------------

 NO OUTPUT CONTROL FOR STRESS PERIOD   31   TIME STEP    2
 
 SOLVING FOR HEAD 
                                                   Max.-Head-Change                         Max.-Flux-Residual
  Residual-Control   Outer-Iter.   Inner-Iter.     Column Row Layer    Maximum-Head-Change  Column Row Layer    Maximum-Flux-Residual          L2-NORM 
          0                 1           7            64   96     3      -0.8631615314E+01      62   87    1        -0.1429192301E+06      0.6257517313E+06
          0                 2           5            20   39     2      -0.1720233455E+01      32   26    1        -0.2162104188E+05      0.6749873011E+05
          0                 3           3            20   39     2       0.1381953338E+00      32   26    1         0.2114175777E+04      0.2375509307E+04
          0                 4           2            20   39     2       0.1467219624E-02      32   26    1         0.3981033072E+01      0.7523785964E+01

    ------------------------------------------------
       NWT REQUIRED            4 OUTER ITERATIONS 
       AND A TOTAL OF         17 INNER ITERATIONS.
    ------------------------------------------------

 NO OUTPUT CONTROL FOR STRESS PERIOD   31   TIME STEP    3

 INTERPOLATION FOR HEAD OBS# 8309, ID 1471-31-113  CHANGED BECAUSE AT LEAST ONE
 NEIGHBORING CELL REQUIRED FOR INTERPOLATION IS DRY OR INACTIVE (OBS2BAS7SE)
 
 SOLVING FOR HEAD 
                                                   Max.-Head-Change                         Max.-Flux-Residual
  Residual-Control   Outer-Iter.   Inner-Iter.     Column Row Layer    Maximum-Head-Change  Column Row Layer    Maximum-Flux-Residual          L2-NORM 
          0                 1           7            65   96     3      -0.4727686475E+01      62   87    1        -0.1061532173E+06      0.5817373203E+06
          0                 2           5            20   39     2       0.8557403298E+00      62   87    1         0.1008403563E+05      0.5947159546E+05
          0                 3           2            32   32     1       0.3584872199E-01      21    7    1         0.3669611415E+03      0.6766680067E+03
          0                 4           1            32   32     1       0.9562564878E-04      32   32    1         0.9025601707E+00      0.2073677306E+01

    ------------------------------------------------
       NWT REQUIRED            4 OUTER ITERATIONS 
       AND A TOTAL OF         15 INNER ITERATIONS.
    ------------------------------------------------

 NO OUTPUT CONTROL FOR STRESS PERIOD   31   TIME STEP    4
 
 SOLVING FOR HEAD 
                                                   Max.-Head-Change                         Max.-Flux-Residual
  Residual-Control   Outer-Iter.   Inner-Iter.     Column Row Layer    Maximum-Head-Change  Column Row Layer    Maximum-Flux-Residual          L2-NORM 
          0                 1           7            65   96     3      -0.3154014847E+01      62   87    1        -0.8439701451E+05      0.5579138531E+06
          0                 2           5            22    7     1      -0.2963653749E+00      26   19    2         0.1082855170E+05      0.5742070193E+05
          0                 3           2            22    7     1       0.2648386209E-01      22    7    1         0.4837995411E+03      0.5760294288E+03
          0                 4           1            19    3     1       0.3993452576E-04      22    7    1         0.7330184951E+00      0.1475237203E+01

    ------------------------------------------------
       NWT REQUIRED            4 OUTER ITERATIONS 
       AND A TOTAL OF         15 INNER ITERATIONS.
    ------------------------------------------------

 NO OUTPUT CONTROL FOR STRESS PERIOD   31   TIME STEP    5
 
 SOLVING FOR HEAD 
                                                   Max.-Head-Change                         Max.-Flux-Residual
  Residual-Control   Outer-Iter.   Inner-Iter.     Column Row Layer    Maximum-Head-Change  Column Row Layer    Maximum-Flux-Residual          L2-NORM 
          0                 1           7            66  101     2       0.4210447477E+01      62   87    1        -0.7076275557E+05      0.5430777248E+06
          0                 2           5            51  103     3       0.8861965285E+01      51  103    3         0.1117205224E+05      0.5566676644E+05
          0                 3           2            51  103     3      -0.8056413140E+00      51  103    3        -0.1117205501E+04      0.1296810029E+04
          0                 4           1            85   85     2      -0.3307706693E-04      26   19    2         0.4400181596E+00      0.1350782103E+01

    ------------------------------------------------
       NWT REQUIRED            4 OUTER ITERATIONS 
       AND A TOTAL OF         15 INNER ITERATIONS.
    ------------------------------------------------

 NO OUTPUT CONTROL FOR STRESS PERIOD   31   TIME STEP    6
 
 SOLVING FOR HEAD 
                                                   Max.-Head-Change                         Max.-Flux-Residual
  Residual-Control   Outer-Iter.   Inner-Iter.     Column Row Layer    Maximum-Head-Change  Column Row Layer    Maximum-Flux-Residual          L2-NORM 
          0                 1           7            51  103     3       0.2984067941E+01      62   87    1        -0.6177882045E+05      0.5323959219E+06
          0                 2           5            21    4     1      -0.4253039364E+00      23   14    2         0.7453807295E+04      0.5487353033E+05
          0                 3           2            21    4     1       0.3751827308E-01      23   14    1        -0.9128039356E+03      0.1257881327E+04
          0                 4           2            23   14     1      -0.1241685608E-02      23   14    1        -0.8216946419E+02      0.8262776777E+02

    ------------------------------------------------
       NWT REQUIRED            4 OUTER ITERATIONS 
       AND A TOTAL OF         16 INNER ITERATIONS.
    ------------------------------------------------

 NO OUTPUT CONTROL FOR STRESS PERIOD   31   TIME STEP    7
 
 SOLVING FOR HEAD 
                                                   Max.-Head-Change                         Max.-Flux-Residual
  Residual-Control   Outer-Iter.   Inner-Iter.     Column Row Layer    Maximum-Head-Change  Column Row Layer    Maximum-Flux-Residual          L2-NORM 
          0                 1           7            68   43     3      -0.2236567843E+01      62   87    1        -0.5558815940E+05      0.5244267302E+06
          0                 2           5            68   46     1      -0.6622384330E+00      23   14    1        -0.6929192997E+04      0.5438102527E+05
          0                 3           2            30   46     2      -0.1788513737E+00      30   46    2        -0.3504826358E+04      0.3909890321E+04
          0                 4           2            30   46     1      -0.1652356066E-01      30   46    2        -0.3182831951E+03      0.3359821683E+03
          0                 5           2            30   46     1      -0.1512969563E-02      30   46    2        -0.2865503066E+02      0.3026098878E+02

    ------------------------------------------------
       NWT REQUIRED            5 OUTER ITERATIONS 
       AND A TOTAL OF         18 INNER ITERATIONS.
    ------------------------------------------------

 NO OUTPUT CONTROL FOR STRESS PERIOD   31   TIME STEP    8
 
 SOLVING FOR HEAD 
                                                   Max.-Head-Change                         Max.-Flux-Residual
  Residual-Control   Outer-Iter.   Inner-Iter.     Column Row Layer    Maximum-Head-Change  Column Row Layer    Maximum-Flux-Residual          L2-NORM 
          0                 1           7            68   43     3      -0.2195599610E+01      62   87    1        -0.5105558890E+05      0.5177047743E+06
          0                 2           5            30   46     2      -0.3477820687E+01      55   84    3         0.1194409774E+05      0.5515462372E+05
          0                 3           3            30   46     2       0.1107659712E+01      30   46    2         0.3959636072E+04      0.6360055299E+04
          0                 4           2            30   46     1       0.1381161844E-01      21    9    1        -0.2863083087E+03      0.3147641264E+03
          0                 5           1            21    9     1      -0.4438983750E-03      21    9    1        -0.2573535345E+02      0.2726587845E+02

    ------------------------------------------------
       NWT REQUIRED            5 OUTER ITERATIONS 
       AND A TOTAL OF         18 INNER ITERATIONS.
    ------------------------------------------------

 NO OUTPUT CONTROL FOR STRESS PERIOD   31   TIME STEP    9

 INTERPOLATION FOR HEAD OBS#  629, ID 3019-31-297  CHANGED BECAUSE AT LEAST ONE
 NEIGHBORING CELL REQUIRED FOR INTERPOLATION IS DRY OR INACTIVE (OBS2BAS7SE)
 
 SOLVING FOR HEAD 
                                                   Max.-Head-Change                         Max.-Flux-Residual
  Residual-Control   Outer-Iter.   Inner-Iter.     Column Row Layer    Maximum-Head-Change  Column Row Layer    Maximum-Flux-Residual          L2-NORM 
          0                 1           7            65    7     2      -0.7641914623E+01      62   87    1        -0.4782412375E+05      0.5133111993E+06
          0                 2           5            55   83     3       0.2257242205E+01      55   83    3         0.1273042391E+05      0.5411517063E+05
          0                 3           2            55   83     3      -0.2052528858E+00      55   83    3        -0.1273050124E+04      0.1811040993E+04
          0                 4           1            65    7     2       0.6719111905E-03      19   36    2         0.1761539997E+01      0.3953173897E+01

    ------------------------------------------------
       NWT REQUIRED            4 OUTER ITERATIONS 
       AND A TOTAL OF         15 INNER ITERATIONS.
    ------------------------------------------------

 NO OUTPUT CONTROL FOR STRESS PERIOD   31   TIME STEP   10
 
 SOLVING FOR HEAD 
                                                   Max.-Head-Change                         Max.-Flux-Residual
  Residual-Control   Outer-Iter.   Inner-Iter.     Column Row Layer    Maximum-Head-Change  Column Row Layer    Maximum-Flux-Residual          L2-NORM 
          0                 1           7            55   82     3       0.2627266419E+01      62   87    1        -0.4540645648E+05      0.5091924916E+06
          0                 2           5            14   23     2      -0.2366134143E+01      14   23    2        -0.7852769177E+04      0.5278837419E+05
          0                 3           3            14   23     2       0.3722321464E+00      14   23    2         0.1583658566E+04      0.1926790072E+04
          0                 4           2            14   23     2       0.2557320387E-02      15   23    2        -0.5690592024E+02      0.5845832291E+02

    ------------------------------------------------
       NWT REQUIRED            4 OUTER ITERATIONS 
       AND A TOTAL OF         17 INNER ITERATIONS.
    ------------------------------------------------

 NO OUTPUT CONTROL FOR STRESS PERIOD   31   TIME STEP   11

 INTERPOLATION FOR HEAD OBS#  633, ID 3012-31-339  CHANGED BECAUSE AT LEAST ONE
 NEIGHBORING CELL REQUIRED FOR INTERPOLATION IS DRY OR INACTIVE (OBS2BAS7SE)
 
 SOLVING FOR HEAD 
                                                   Max.-Head-Change                         Max.-Flux-Residual
  Residual-Control   Outer-Iter.   Inner-Iter.     Column Row Layer    Maximum-Head-Change  Column Row Layer    Maximum-Flux-Residual          L2-NORM 
          0                 1           7            68   43     3      -0.2086638267E+01      68   43    3        -0.4426144762E+05      0.5057668458E+06
          0                 2           5            68   45     1      -0.1058574486E+01      33   26    1        -0.6765039339E+04      0.5146987390E+05
          0                 3           2            68   45     1       0.8652926137E-01      33   26    1         0.6677312561E+03      0.9892029953E+03
          0                 4           2            19   72     1      -0.9453616173E-03      19   72    2        -0.4176404170E+02      0.4191272048E+02

    ------------------------------------------------
       NWT REQUIRED            4 OUTER ITERATIONS 
       AND A TOTAL OF         16 INNER ITERATIONS.
    ------------------------------------------------

 OUTPUT CONTROL FOR STRESS PERIOD   31   TIME STEP   12
    SAVE BUDGET
    SAVE HEAD FOR LAYERS:   1  2  3
 UBDSV1 SAVING "         STORAGE" ON UNIT  39 AT TIME STEP 12, STRESS PERIOD  31
 UBDSV2 SAVING "   CONSTANT HEAD" ON UNIT  39 AT TIME STEP 12, STRESS PERIOD  31
 UBDSV1 SAVING "FLOW RIGHT FACE " ON UNIT  39 AT TIME STEP 12, STRESS PERIOD  31
 UBDSV1 SAVING "FLOW FRONT FACE " ON UNIT  39 AT TIME STEP 12, STRESS PERIOD  31
 UBDSV1 SAVING "FLOW LOWER FACE " ON UNIT  39 AT TIME STEP 12, STRESS PERIOD  31
 UBDSV4 SAVING "           WELLS" ON UNIT  39 AT TIME STEP 12, STRESS PERIOD  31
 UBDSV3 SAVING "              ET" ON UNIT  39 AT TIME STEP 12, STRESS PERIOD  31
 UBDSV3 SAVING "        RECHARGE" ON UNIT  39 AT TIME STEP 12, STRESS PERIOD  31

 HEAD WILL BE SAVED ON UNIT   31 AT END OF TIME STEP   12, STRESS PERIOD   31
1
  VOLUMETRIC BUDGET FOR ENTIRE MODEL AT END OF TIME STEP   12, STRESS PERIOD  31
  ------------------------------------------------------------------------------

     CUMULATIVE VOLUMES      L**3       RATES FOR THIS TIME STEP      L**3/T
     ------------------                 ------------------------

           IN:                                      IN:
           ---                                      ---
             STORAGE =191176572928.0000               STORAGE =    26273310.0000
       CONSTANT HEAD = 15353396224.0000         CONSTANT HEAD =     1776931.8750
               WELLS = 13877913600.0000                 WELLS =     1225642.0000
                  ET =           0.0000                    ET =           0.0000
            RECHARGE =186836025344.0000              RECHARGE =    18557084.0000

            TOTAL IN =407243915264.0000              TOTAL IN =    47832968.0000

          OUT:                                     OUT:
          ----                                     ----
             STORAGE = 23639699456.0000               STORAGE =      649414.4375
       CONSTANT HEAD = 40632389632.0000         CONSTANT HEAD =     3312846.0000
               WELLS =332012912640.0000                 WELLS =    43394608.0000
                  ET = 10958621696.0000                    ET =      476109.2500
            RECHARGE =           0.0000              RECHARGE =           0.0000

           TOTAL OUT =407243620352.0000             TOTAL OUT =    47832976.0000

            IN - OUT =      294912.0000              IN - OUT =          -8.0000

 PERCENT DISCREPANCY =           0.00     PERCENT DISCREPANCY =          -0.00






         TIME SUMMARY AT END OF TIME STEP   12 IN STRESS PERIOD   31
                    SECONDS     MINUTES      HOURS       DAYS        YEARS
                    -----------------------------------------------------------
   TIME STEP LENGTH 2.62800E+06  43800.      730.00      30.417     8.32763E-02
 STRESS PERIOD TIME 3.15360E+07 5.25600E+05  8760.0      365.00     0.99932    
         TOTAL TIME 9.78308E+08 1.63051E+07 2.71752E+05  11323.      31.001    
1
1
                            STRESS PERIOD NO.   32, LENGTH =   365.0000    
                            -----------------------------------------------

                              NUMBER OF TIME STEPS =    12

                               MULTIPLIER FOR DELT =     1.000

                            INITIAL TIME STEP SIZE =   30.41667    

   1689 WELLS

 REUSING SURF FROM LAST STRESS PERIOD

 REUSING EVTR FROM LAST STRESS PERIOD

 REUSING EXDP FROM LAST STRESS PERIOD



                           RECHARGE
 READING ON UNIT   16 WITH FORMAT: (15F5.0)            


     63 TIME-VARIANT SPECIFIED-HEAD CELLS
 
 SOLVING FOR HEAD 
                                                   Max.-Head-Change                         Max.-Flux-Residual
  Residual-Control   Outer-Iter.   Inner-Iter.     Column Row Layer    Maximum-Head-Change  Column Row Layer    Maximum-Flux-Residual          L2-NORM 
          0                 1           7            62   96     3       0.1201702691E+03      62   96    3         0.3511435637E+06      0.1120138698E+07
          0                 2           5            92   77     2       0.4007992395E+02      88   67    1        -0.5129097311E+06      0.5285503631E+06
          0                 3           2            92   77     2      -0.2560884342E+02      92   77    2        -0.7685604820E+06      0.7693139897E+06
          0                 4           2            91   77     2       0.6158695599E+01      92   77    2        -0.9224782298E+04      0.1121376726E+05
          0                 5           2            91   77     2       0.8939592790E+00      91   77    2         0.4900387141E+03      0.6687347002E+03
          0                 6           2            91   77     2       0.1259429777E+00      91   77    2         0.6897976966E+02      0.8030456847E+02
          0                 7           2            91   77     2       0.1774687641E-01      91   77    2         0.9719762867E+01      0.1046778189E+02
          0                 8           2            91   77     2       0.2499401363E-02      91   77    2         0.1368792790E+01      0.1437774420E+01

    ------------------------------------------------
       NWT REQUIRED            8 OUTER ITERATIONS 
       AND A TOTAL OF         24 INNER ITERATIONS.
    ------------------------------------------------

 NO OUTPUT CONTROL FOR STRESS PERIOD   32   TIME STEP    1
 
 SOLVING FOR HEAD 
                                                   Max.-Head-Change                         Max.-Flux-Residual
  Residual-Control   Outer-Iter.   Inner-Iter.     Column Row Layer    Maximum-Head-Change  Column Row Layer    Maximum-Flux-Residual          L2-NORM 
          0                 1           7            63   96     3       0.1880843915E+02      62   86    1        -0.1296471918E+06      0.6509788088E+06
          0                 2           5            63   96     3      -0.1710977298E+01      61   87    2         0.2094735403E+05      0.6862596444E+05
          0                 3           2            20    6     1       0.2335399660E-01      20    6    1         0.3901191513E+03      0.6034929739E+03
          0                 4           1            53  118     1      -0.1169892394E-03      53  118    1        -0.8158992916E+01      0.8519846777E+01

    ------------------------------------------------
       NWT REQUIRED            4 OUTER ITERATIONS 
       AND A TOTAL OF         15 INNER ITERATIONS.
    ------------------------------------------------

 NO OUTPUT CONTROL FOR STRESS PERIOD   32   TIME STEP    2

 INTERPOLATION FOR HEAD OBS# 3407, ID 1428-32-85   CHANGED BECAUSE AT LEAST ONE
 NEIGHBORING CELL REQUIRED FOR INTERPOLATION IS DRY OR INACTIVE (OBS2BAS7SE)

 INTERPOLATION FOR HEAD OBS# 6999, ID 683-32-61    CHANGED BECAUSE AT LEAST ONE
 NEIGHBORING CELL REQUIRED FOR INTERPOLATION IS DRY OR INACTIVE (OBS2BAS7SE)
 
 SOLVING FOR HEAD 
                                                   Max.-Head-Change                         Max.-Flux-Residual
  Residual-Control   Outer-Iter.   Inner-Iter.     Column Row Layer    Maximum-Head-Change  Column Row Layer    Maximum-Flux-Residual          L2-NORM 
          0                 1           7            64   96     3       0.6177545362E+01      62   86    1        -0.9283215835E+05      0.5670858399E+06
          0                 2           5            22   40     2      -0.7955630643E+00      61   87    1        -0.9176072783E+04      0.5768995402E+05
          0                 3           2            22   40     2       0.6415896435E-01      17   11    1        -0.9699782311E+03      0.1368853189E+04
          0                 4           1            17   11     1      -0.7056864139E-03      17   11    1        -0.8731268817E+02      0.8744482765E+02

    ------------------------------------------------
       NWT REQUIRED            4 OUTER ITERATIONS 
       AND A TOTAL OF         15 INNER ITERATIONS.
    ------------------------------------------------

 NO OUTPUT CONTROL FOR STRESS PERIOD   32   TIME STEP    3

 INTERPOLATION FOR HEAD OBS# 8354, ID 3016-32-94   CHANGED BECAUSE AT LEAST ONE
 NEIGHBORING CELL REQUIRED FOR INTERPOLATION IS DRY OR INACTIVE (OBS2BAS7SE)

 INTERPOLATION FOR HEAD OBS# 8355, ID 3055-32-94   CHANGED BECAUSE AT LEAST ONE
 NEIGHBORING CELL REQUIRED FOR INTERPOLATION IS DRY OR INACTIVE (OBS2BAS7SE)

 INTERPOLATION FOR HEAD OBS# 8361, ID 2869-32-96   CHANGED BECAUSE AT LEAST ONE
 NEIGHBORING CELL REQUIRED FOR INTERPOLATION IS DRY OR INACTIVE (OBS2BAS7SE)
 
 SOLVING FOR HEAD 
                                                   Max.-Head-Change                         Max.-Flux-Residual
  Residual-Control   Outer-Iter.   Inner-Iter.     Column Row Layer    Maximum-Head-Change  Column Row Layer    Maximum-Flux-Residual          L2-NORM 
          0                 1           7            22   40     2      -0.3766610411E+01      62   86    1        -0.7111878512E+05      0.5298358737E+06
          0                 2           5            72   57     3       0.3028471135E+00      20   13    2         0.8099265601E+04      0.5549307521E+05
          0                 3           2            22   10     1       0.1208238952E-01      17   11    1         0.5744250000E+03      0.7468136640E+03
          0                 4           1            91   77     2      -0.9353106251E-04      59  100    2        -0.5344698913E+00      0.1337869129E+01

    ------------------------------------------------
       NWT REQUIRED            4 OUTER ITERATIONS 
       AND A TOTAL OF         15 INNER ITERATIONS.
    ------------------------------------------------

 NO OUTPUT CONTROL FOR STRESS PERIOD   32   TIME STEP    4
 
 SOLVING FOR HEAD 
                                                   Max.-Head-Change                         Max.-Flux-Residual
  Residual-Control   Outer-Iter.   Inner-Iter.     Column Row Layer    Maximum-Head-Change  Column Row Layer    Maximum-Flux-Residual          L2-NORM 
          0                 1           7            72   57     3      -0.2339992948E+01      62   86    1        -0.5776503726E+05      0.5087050614E+06
          0                 2           5            20    3     1      -0.4819746514E+00      62   86    1         0.5636754071E+04      0.5161664559E+05
          0                 3           2            20    3     1       0.4248362237E-01      24   16    1         0.4906211702E+03      0.7649234024E+03
          0                 4           1            22    9     1      -0.3366178921E-03      22    9    1        -0.1799114211E+02      0.1808567293E+02

    ------------------------------------------------
       NWT REQUIRED            4 OUTER ITERATIONS 
       AND A TOTAL OF         15 INNER ITERATIONS.
    ------------------------------------------------

 NO OUTPUT CONTROL FOR STRESS PERIOD   32   TIME STEP    5
 
 SOLVING FOR HEAD 
                                                   Max.-Head-Change                         Max.-Flux-Residual
  Residual-Control   Outer-Iter.   Inner-Iter.     Column Row Layer    Maximum-Head-Change  Column Row Layer    Maximum-Flux-Residual          L2-NORM 
          0                 1           7            55   97     3       0.2200199664E+01      81   46    1         0.5358694617E+05      0.4940474617E+06
          0                 2           5            56   35     1      -0.9117034845E+00      22    9    1        -0.6194855508E+04      0.5045115792E+05
          0                 3           2            56   35     1       0.7497299634E-01      22    9    1         0.6106376181E+03      0.1051956997E+04
          0                 4           1            56   35     1       0.6343024763E-03      56   35    1         0.2899476096E+01      0.3627569655E+01

    ------------------------------------------------
       NWT REQUIRED            4 OUTER ITERATIONS 
       AND A TOTAL OF         15 INNER ITERATIONS.
    ------------------------------------------------

 NO OUTPUT CONTROL FOR STRESS PERIOD   32   TIME STEP    6
 
 SOLVING FOR HEAD 
                                                   Max.-Head-Change                         Max.-Flux-Residual
  Residual-Control   Outer-Iter.   Inner-Iter.     Column Row Layer    Maximum-Head-Change  Column Row Layer    Maximum-Flux-Residual          L2-NORM 
          0                 1           7            55   97     3       0.2160382988E+01      81   46    1         0.5194329748E+05      0.4831543093E+06
          0                 2           5            90   67     2       0.5335943601E+00      85   62    1        -0.5296420844E+04      0.4919707503E+05
          0                 3           2            90   67     2      -0.4850495388E-01      90   67    2        -0.4934878076E+03      0.5379615722E+03
          0                 4           1            35   31     1       0.9604226083E-04      35   31    1         0.4970618859E+00      0.9854288266E+00

    ------------------------------------------------
       NWT REQUIRED            4 OUTER ITERATIONS 
       AND A TOTAL OF         15 INNER ITERATIONS.
    ------------------------------------------------

 NO OUTPUT CONTROL FOR STRESS PERIOD   32   TIME STEP    7
 
 SOLVING FOR HEAD 
                                                   Max.-Head-Change                         Max.-Flux-Residual
  Residual-Control   Outer-Iter.   Inner-Iter.     Column Row Layer    Maximum-Head-Change  Column Row Layer    Maximum-Flux-Residual          L2-NORM 
          0                 1           7            55   97     3       0.2120383090E+01      81   46    1         0.5033976018E+05      0.4745442185E+06
          0                 2           5            55   97     3      -0.1908598170E+00      81   46    1        -0.5038914595E+04      0.4772169591E+05
          0                 3           2            13   83     1       0.3441459672E-02      13   83    1         0.5645623108E+02      0.6459373328E+02

    ------------------------------------------------
       NWT REQUIRED            3 OUTER ITERATIONS 
       AND A TOTAL OF         14 INNER ITERATIONS.
    ------------------------------------------------

 NO OUTPUT CONTROL FOR STRESS PERIOD   32   TIME STEP    8
 
 SOLVING FOR HEAD 
                                                   Max.-Head-Change                         Max.-Flux-Residual
  Residual-Control   Outer-Iter.   Inner-Iter.     Column Row Layer    Maximum-Head-Change  Column Row Layer    Maximum-Flux-Residual          L2-NORM 
          0                 1           7            55   97     3       0.2080262463E+01      81   46    1         0.4878058937E+05      0.4673045653E+06
          0                 2           5            78   56     1      -0.1599011315E+01      78   56    1        -0.5704175552E+04      0.4722707214E+05
          0                 3           2            78   56     1       0.1306314092E+00      78   56    1         0.5133124857E+03      0.6425357824E+03
          0                 4           2            78   56     1       0.1182080316E-02      78   56    1         0.4583659419E+01      0.4970705075E+01

    ------------------------------------------------
       NWT REQUIRED            4 OUTER ITERATIONS 
       AND A TOTAL OF         16 INNER ITERATIONS.
    ------------------------------------------------

 NO OUTPUT CONTROL FOR STRESS PERIOD   32   TIME STEP    9
 
 SOLVING FOR HEAD 
                                                   Max.-Head-Change                         Max.-Flux-Residual
  Residual-Control   Outer-Iter.   Inner-Iter.     Column Row Layer    Maximum-Head-Change  Column Row Layer    Maximum-Flux-Residual          L2-NORM 
          0                 1           7            55   97     3       0.2040083554E+01      81   46    1         0.4726570497E+05      0.4611327697E+06
          0                 2           5            14   24     2      -0.6937650640E+00      81   46    1        -0.4730919970E+04      0.4670990205E+05
          0                 3           2            14   24     2       0.7744484991E-01      14   24    2         0.5275250190E+03      0.7258459718E+03
          0                 4           1            14   24     2       0.3116666403E-03      15   24    2        -0.9188996853E+01      0.9666499904E+01

    ------------------------------------------------
       NWT REQUIRED            4 OUTER ITERATIONS 
       AND A TOTAL OF         15 INNER ITERATIONS.
    ------------------------------------------------

 NO OUTPUT CONTROL FOR STRESS PERIOD   32   TIME STEP   10
 
 SOLVING FOR HEAD 
                                                   Max.-Head-Change                         Max.-Flux-Residual
  Residual-Control   Outer-Iter.   Inner-Iter.     Column Row Layer    Maximum-Head-Change  Column Row Layer    Maximum-Flux-Residual          L2-NORM 
          0                 1           7            55   97     3       0.1999907427E+01      81   46    1         0.4579481349E+05      0.4557984696E+06
          0                 2           5            55   97     3      -0.1799897732E+00      81   46    1        -0.4583559425E+04      0.4625465395E+05
          0                 3           2            35   54     2       0.1343309242E-01      35   54    2         0.2720542591E+03      0.2825427547E+03
          0                 4           1            91   77     2      -0.7464426229E-04      35   54    2         0.5537491441E+00      0.1190087125E+01

    ------------------------------------------------
       NWT REQUIRED            4 OUTER ITERATIONS 
       AND A TOTAL OF         15 INNER ITERATIONS.
    ------------------------------------------------

 NO OUTPUT CONTROL FOR STRESS PERIOD   32   TIME STEP   11
 
 SOLVING FOR HEAD 
                                                   Max.-Head-Change                         Max.-Flux-Residual
  Residual-Control   Outer-Iter.   Inner-Iter.     Column Row Layer    Maximum-Head-Change  Column Row Layer    Maximum-Flux-Residual          L2-NORM 
          0                 1           7            55   97     3       0.1959793144E+01      81   46    1         0.4436751218E+05      0.4510171227E+06
          0                 2           5            61   88     2       0.2569614444E+00      61   88    2         0.1553511096E+05      0.4827279880E+05
          0                 3           2            20    8     1       0.1209402318E-01      20    8    1         0.3434063219E+03      0.3656237047E+03
          0                 4           1            91   77     2      -0.6389252233E-04      61   88    1        -0.3550645709E+00      0.8426209370E+00

    ------------------------------------------------
       NWT REQUIRED            4 OUTER ITERATIONS 
       AND A TOTAL OF         15 INNER ITERATIONS.
    ------------------------------------------------

 OUTPUT CONTROL FOR STRESS PERIOD   32   TIME STEP   12
    SAVE BUDGET
 UBDSV1 SAVING "         STORAGE" ON UNIT  39 AT TIME STEP 12, STRESS PERIOD  32
 UBDSV2 SAVING "   CONSTANT HEAD" ON UNIT  39 AT TIME STEP 12, STRESS PERIOD  32
 UBDSV1 SAVING "FLOW RIGHT FACE " ON UNIT  39 AT TIME STEP 12, STRESS PERIOD  32
 UBDSV1 SAVING "FLOW FRONT FACE " ON UNIT  39 AT TIME STEP 12, STRESS PERIOD  32
 UBDSV1 SAVING "FLOW LOWER FACE " ON UNIT  39 AT TIME STEP 12, STRESS PERIOD  32
 UBDSV4 SAVING "           WELLS" ON UNIT  39 AT TIME STEP 12, STRESS PERIOD  32
 UBDSV3 SAVING "              ET" ON UNIT  39 AT TIME STEP 12, STRESS PERIOD  32
 UBDSV3 SAVING "        RECHARGE" ON UNIT  39 AT TIME STEP 12, STRESS PERIOD  32
1
  VOLUMETRIC BUDGET FOR ENTIRE MODEL AT END OF TIME STEP   12, STRESS PERIOD  32
  ------------------------------------------------------------------------------

     CUMULATIVE VOLUMES      L**3       RATES FOR THIS TIME STEP      L**3/T
     ------------------                 ------------------------

           IN:                                      IN:
           ---                                      ---
             STORAGE =199506739200.0000               STORAGE =    22192462.0000
       CONSTANT HEAD = 16030689280.0000         CONSTANT HEAD =     1914479.6250
               WELLS = 14325233664.0000                 WELLS =     1225525.0000
                  ET =           0.0000                    ET =           0.0000
            RECHARGE =195453550592.0000              RECHARGE =    23609482.0000

            TOTAL IN =425316220928.0000              TOTAL IN =    48941952.0000

          OUT:                                     OUT:
          ----                                     ----
             STORAGE = 24483149824.0000               STORAGE =     1668359.2500
       CONSTANT HEAD = 41855414272.0000         CONSTANT HEAD =     3374884.0000
               WELLS =347802894336.0000                 WELLS =    43260604.0000
                  ET = 11174286336.0000                    ET =      638101.2500
            RECHARGE =           0.0000              RECHARGE =           0.0000

           TOTAL OUT =425315729408.0000             TOTAL OUT =    48941948.0000

            IN - OUT =      491520.0000              IN - OUT =           4.0000

 PERCENT DISCREPANCY =           0.00     PERCENT DISCREPANCY =           0.00






         TIME SUMMARY AT END OF TIME STEP   12 IN STRESS PERIOD   32
                    SECONDS     MINUTES      HOURS       DAYS        YEARS
                    -----------------------------------------------------------
   TIME STEP LENGTH 2.62800E+06  43800.      730.00      30.417     8.32763E-02
 STRESS PERIOD TIME 3.15360E+07 5.25600E+05  8760.0      365.00     0.99932    
         TOTAL TIME 1.00984E+09 1.68307E+07 2.80512E+05  11688.      32.000    
1
1
                            STRESS PERIOD NO.   33, LENGTH =   366.0000    
                            -----------------------------------------------

                              NUMBER OF TIME STEPS =    12

                               MULTIPLIER FOR DELT =     1.000

                            INITIAL TIME STEP SIZE =   30.50000    

   1693 WELLS

 REUSING SURF FROM LAST STRESS PERIOD

 REUSING EVTR FROM LAST STRESS PERIOD

 REUSING EXDP FROM LAST STRESS PERIOD



                           RECHARGE
 READING ON UNIT   16 WITH FORMAT: (15F5.0)            


     63 TIME-VARIANT SPECIFIED-HEAD CELLS
 
 SOLVING FOR HEAD 
                                                   Max.-Head-Change                         Max.-Flux-Residual
  Residual-Control   Outer-Iter.   Inner-Iter.     Column Row Layer    Maximum-Head-Change  Column Row Layer    Maximum-Flux-Residual          L2-NORM 
          0                 1           7            61   96     3      -0.7542575014E+02      61   96    3        -0.3405144662E+06      0.9989467638E+06
          0                 2           5            51  103     3       0.2052755659E+02      51  103    3         0.5002387177E+06      0.5131096487E+06
          0                 3           3            85   62     1       0.7990356364E+00      17   16    1        -0.2093098527E+04      0.3902778279E+04
          0                 4           2            85   62     1       0.2210637022E-01      17   16    1        -0.1884713547E+03      0.2659090358E+03
          0                 5           1            85   62     1       0.6095543082E-03      17   16    1        -0.1694411874E+02      0.2391486398E+02

    ------------------------------------------------
       NWT REQUIRED            5 OUTER ITERATIONS 
       AND A TOTAL OF         18 INNER ITERATIONS.
    ------------------------------------------------

 NO OUTPUT CONTROL FOR STRESS PERIOD   33   TIME STEP    1
 
 SOLVING FOR HEAD 
                                                   Max.-Head-Change                         Max.-Flux-Residual
  Residual-Control   Outer-Iter.   Inner-Iter.     Column Row Layer    Maximum-Head-Change  Column Row Layer    Maximum-Flux-Residual          L2-NORM 
          0                 1           7            69   63     3       0.7440342230E+01      58   71    1        -0.1020823261E+06      0.6667771710E+06
          0                 2           5            65    4     2      -0.4406567098E+01      57  103    2        -0.1808204624E+05      0.7271054238E+05
          0                 3           3            65    4     2       0.1413722727E+00      58  100    3         0.2675883472E+04      0.2899417266E+04
          0                 4           2            65    4     2       0.8290978463E-02      58  100    3         0.2614438259E+03      0.2631147054E+03

    ------------------------------------------------
       NWT REQUIRED            4 OUTER ITERATIONS 
       AND A TOTAL OF         17 INNER ITERATIONS.
    ------------------------------------------------

 NO OUTPUT CONTROL FOR STRESS PERIOD   33   TIME STEP    2
 
 SOLVING FOR HEAD 
                                                   Max.-Head-Change                         Max.-Flux-Residual
  Residual-Control   Outer-Iter.   Inner-Iter.     Column Row Layer    Maximum-Head-Change  Column Row Layer    Maximum-Flux-Residual          L2-NORM 
          0                 1           7            53  106     3       0.4936441860E+01      58   71    1        -0.7805693751E+05      0.6050788670E+06
          0                 2           5            92   77     2      -0.7104578658E+02      92   77    2        -0.2259800437E+05      0.6597731450E+05
          0                 3           2            92   77     2       0.5981591627E+01      92   77    2         0.4138781716E+04      0.6116336898E+04
          0                 4           2            92   77     2       0.2486405290E+00      92   77    2         0.1707451820E+03      0.2415412454E+03
          0                 5           2            92   77     2       0.1015998212E-01      92   76    2        -0.7893147749E+01      0.1276940732E+02
          0                 6           1            92   77     2       0.4134945730E-03      92   77    3         0.9510422591E+00      0.1071695184E+01

    ------------------------------------------------
       NWT REQUIRED            6 OUTER ITERATIONS 
       AND A TOTAL OF         19 INNER ITERATIONS.
    ------------------------------------------------

 NO OUTPUT CONTROL FOR STRESS PERIOD   33   TIME STEP    3
 
 SOLVING FOR HEAD 
                                                   Max.-Head-Change                         Max.-Flux-Residual
  Residual-Control   Outer-Iter.   Inner-Iter.     Column Row Layer    Maximum-Head-Change  Column Row Layer    Maximum-Flux-Residual          L2-NORM 
          0                 1           7            92   77     2      -0.1562376464E+02      53  106    3         0.7227006906E+05      0.5736191775E+06
          0                 2           5            92   77     2       0.6552148788E+00      17   12    2         0.1114255869E+05      0.5999412149E+05
          0                 3           2            92   77     2       0.2650592317E-01      21   14    2         0.4417337770E+03      0.4779104170E+03
          0                 4           2            92   77     2       0.1074404662E-02      92   77    2         0.7214090074E+00      0.1309246086E+01

    ------------------------------------------------
       NWT REQUIRED            4 OUTER ITERATIONS 
       AND A TOTAL OF         16 INNER ITERATIONS.
    ------------------------------------------------

 NO OUTPUT CONTROL FOR STRESS PERIOD   33   TIME STEP    4

 INTERPOLATION FOR HEAD OBS# 7776, ID 164-33-152   CHANGED BECAUSE AT LEAST ONE
 NEIGHBORING CELL REQUIRED FOR INTERPOLATION IS DRY OR INACTIVE (OBS2BAS7SE)
 
 SOLVING FOR HEAD 
                                                   Max.-Head-Change                         Max.-Flux-Residual
  Residual-Control   Outer-Iter.   Inner-Iter.     Column Row Layer    Maximum-Head-Change  Column Row Layer    Maximum-Flux-Residual          L2-NORM 
          0                 1           7            53  106     3       0.4342609463E+01      53  106    3         0.6779363961E+05      0.5540781302E+06
          0                 2           5            30   45     2      -0.8888282602E+00      21   14    2         0.8190080650E+04      0.5681575532E+05
          0                 3           2            30   45     2       0.6930636261E-01      20   14    1         0.5790650226E+03      0.1000938352E+04
          0                 4           1            30   45     1       0.8530022465E-03      30   45    1         0.1456293851E+01      0.2519184354E+01

    ------------------------------------------------
       NWT REQUIRED            4 OUTER ITERATIONS 
       AND A TOTAL OF         15 INNER ITERATIONS.
    ------------------------------------------------

 NO OUTPUT CONTROL FOR STRESS PERIOD   33   TIME STEP    5
 
 SOLVING FOR HEAD 
                                                   Max.-Head-Change                         Max.-Flux-Residual
  Residual-Control   Outer-Iter.   Inner-Iter.     Column Row Layer    Maximum-Head-Change  Column Row Layer    Maximum-Flux-Residual          L2-NORM 
          0                 1           7            53  106     3       0.4073211057E+01      53  106    3         0.6358680288E+05      0.5398352059E+06
          0                 2           5            53  106     3      -0.3715078883E+00      61   85    2         0.9872235067E+04      0.5537664335E+05
          0                 3           2            25   18     1       0.9482824030E-02      19   16    1         0.5249626242E+03      0.9541093201E+03

    ------------------------------------------------
       NWT REQUIRED            3 OUTER ITERATIONS 
       AND A TOTAL OF         14 INNER ITERATIONS.
    ------------------------------------------------

 NO OUTPUT CONTROL FOR STRESS PERIOD   33   TIME STEP    6
 
 SOLVING FOR HEAD 
                                                   Max.-Head-Change                         Max.-Flux-Residual
  Residual-Control   Outer-Iter.   Inner-Iter.     Column Row Layer    Maximum-Head-Change  Column Row Layer    Maximum-Flux-Residual          L2-NORM 
          0                 1           7            53  106     3       0.3821532714E+01      53  106    3         0.5964660656E+05      0.5290471121E+06
          0                 2           5            53  106     3      -0.3484732296E+00      15   11    1        -0.1112167058E+05      0.5520323208E+05
          0                 3           2            34   27     1       0.1999164330E-01      15   11    1         0.1101266804E+04      0.1493074332E+04
          0                 4           1            92   77     2       0.6468093266E-04      34   27    1         0.1079191357E+01      0.2046720978E+01

    ------------------------------------------------
       NWT REQUIRED            4 OUTER ITERATIONS 
       AND A TOTAL OF         15 INNER ITERATIONS.
    ------------------------------------------------

 NO OUTPUT CONTROL FOR STRESS PERIOD   33   TIME STEP    7
 
 SOLVING FOR HEAD 
                                                   Max.-Head-Change                         Max.-Flux-Residual
  Residual-Control   Outer-Iter.   Inner-Iter.     Column Row Layer    Maximum-Head-Change  Column Row Layer    Maximum-Flux-Residual          L2-NORM 
          0                 1           7            23   45     2      -0.4872060415E+01      55   97    3         0.5606595727E+05      0.5201007157E+06
          0                 2           5            88   67     1      -0.1231679131E+02      88   67    1        -0.1493136318E+05      0.5507564267E+05
          0                 3           2            88   67     1       0.7558167838E+00      88   67    2        -0.1249734756E+04      0.1673333194E+04
          0                 4           2            88   67     1       0.2224634923E-01      88   67    1         0.2963819108E+02      0.3010115514E+02
          0                 5           1            88   67     1       0.6522787457E-03      88   67    2         0.2240347579E+01      0.2425426926E+01

    ------------------------------------------------
       NWT REQUIRED            5 OUTER ITERATIONS 
       AND A TOTAL OF         17 INNER ITERATIONS.
    ------------------------------------------------

 NO OUTPUT CONTROL FOR STRESS PERIOD   33   TIME STEP    8
 
 SOLVING FOR HEAD 
                                                   Max.-Head-Change                         Max.-Flux-Residual
  Residual-Control   Outer-Iter.   Inner-Iter.     Column Row Layer    Maximum-Head-Change  Column Row Layer    Maximum-Flux-Residual          L2-NORM 
          0                 1           7            53  106     3       0.3368249779E+01      55   97    3         0.5475189221E+05      0.5123601135E+06
          0                 2           5            87   63     1      -0.9703755372E+00      61   89    2         0.1916838615E+05      0.5502976232E+05
          0                 3           2            61   89     1      -0.1161704070E+00      61   89    1        -0.8839957712E+04      0.8914972907E+04
          0                 4           2            61   89     1      -0.1050662573E-01      61   89    1        -0.7987883016E+03      0.8029943768E+03
          0                 5           2            61   89     1      -0.9451243281E-03      61   89    1        -0.7185792106E+02      0.7223378764E+02

    ------------------------------------------------
       NWT REQUIRED            5 OUTER ITERATIONS 
       AND A TOTAL OF         18 INNER ITERATIONS.
    ------------------------------------------------

 NO OUTPUT CONTROL FOR STRESS PERIOD   33   TIME STEP    9
 
 SOLVING FOR HEAD 
                                                   Max.-Head-Change                         Max.-Flux-Residual
  Residual-Control   Outer-Iter.   Inner-Iter.     Column Row Layer    Maximum-Head-Change  Column Row Layer    Maximum-Flux-Residual          L2-NORM 
          0                 1           7            53  106     3       0.3164862124E+01      55   97    3         0.5344853233E+05      0.5055795460E+06
          0                 2           5            60  117     1      -0.5615055168E+00      53  116    2         0.1735365349E+05      0.5874353963E+05
          0                 3           3            60  117     1       0.4793179757E-01      60   63    2         0.1255048756E+04      0.1981758289E+04
          0                 4           1            60  117     1       0.2636697167E-03      61   89    1         0.1451825529E+01      0.2624107385E+01

    ------------------------------------------------
       NWT REQUIRED            4 OUTER ITERATIONS 
       AND A TOTAL OF         16 INNER ITERATIONS.
    ------------------------------------------------

 NO OUTPUT CONTROL FOR STRESS PERIOD   33   TIME STEP   10

 INTERPOLATION FOR HEAD OBS#  252, ID 3260-33-313  CHANGED BECAUSE AT LEAST ONE
 NEIGHBORING CELL REQUIRED FOR INTERPOLATION IS DRY OR INACTIVE (OBS2BAS7SE)
 
 SOLVING FOR HEAD 
                                                   Max.-Head-Change                         Max.-Flux-Residual
  Residual-Control   Outer-Iter.   Inner-Iter.     Column Row Layer    Maximum-Head-Change  Column Row Layer    Maximum-Flux-Residual          L2-NORM 
          0                 1           7            53  106     3       0.2969760670E+01      55   97    3         0.5215795917E+05      0.5001441553E+06
          0                 2           5            53  116     1      -0.3433791102E+00      60   63    2         0.2716352181E+05      0.6025123938E+05
          0                 3           2            53  116     1       0.3074368315E-01      53  116    1         0.7620511416E+03      0.1020875182E+04
          0                 4           1            55  100     2       0.7708282448E-04      55  100    3         0.2088189818E+01      0.2679444803E+01

    ------------------------------------------------
       NWT REQUIRED            4 OUTER ITERATIONS 
       AND A TOTAL OF         15 INNER ITERATIONS.
    ------------------------------------------------

 NO OUTPUT CONTROL FOR STRESS PERIOD   33   TIME STEP   11
 
 SOLVING FOR HEAD 
                                                   Max.-Head-Change                         Max.-Flux-Residual
  Residual-Control   Outer-Iter.   Inner-Iter.     Column Row Layer    Maximum-Head-Change  Column Row Layer    Maximum-Flux-Residual          L2-NORM 
          0                 1           7            53  106     3       0.2789387209E+01      55   97    3         0.5088210111E+05      0.4946552422E+06
          0                 2           5            14   21     2      -0.2325834962E+01      19   14    2         0.6634723852E+04      0.5050502073E+05
          0                 3           3            14   21     2       0.2560070518E+00      19   14    1        -0.9580548804E+03      0.1721838202E+04
          0                 4           2            14   21     2       0.2013823743E-02      19   14    1        -0.8624623817E+02      0.1044150390E+03

    ------------------------------------------------
       NWT REQUIRED            4 OUTER ITERATIONS 
       AND A TOTAL OF         17 INNER ITERATIONS.
    ------------------------------------------------

 OUTPUT CONTROL FOR STRESS PERIOD   33   TIME STEP   12
    SAVE BUDGET
 UBDSV1 SAVING "         STORAGE" ON UNIT  39 AT TIME STEP 12, STRESS PERIOD  33
 UBDSV2 SAVING "   CONSTANT HEAD" ON UNIT  39 AT TIME STEP 12, STRESS PERIOD  33
 UBDSV1 SAVING "FLOW RIGHT FACE " ON UNIT  39 AT TIME STEP 12, STRESS PERIOD  33
 UBDSV1 SAVING "FLOW FRONT FACE " ON UNIT  39 AT TIME STEP 12, STRESS PERIOD  33
 UBDSV1 SAVING "FLOW LOWER FACE " ON UNIT  39 AT TIME STEP 12, STRESS PERIOD  33
 UBDSV4 SAVING "           WELLS" ON UNIT  39 AT TIME STEP 12, STRESS PERIOD  33
 UBDSV3 SAVING "              ET" ON UNIT  39 AT TIME STEP 12, STRESS PERIOD  33
 UBDSV3 SAVING "        RECHARGE" ON UNIT  39 AT TIME STEP 12, STRESS PERIOD  33
1
  VOLUMETRIC BUDGET FOR ENTIRE MODEL AT END OF TIME STEP   12, STRESS PERIOD  33
  ------------------------------------------------------------------------------

     CUMULATIVE VOLUMES      L**3       RATES FOR THIS TIME STEP      L**3/T
     ------------------                 ------------------------

           IN:                                      IN:
           ---                                      ---
             STORAGE =208659480576.0000               STORAGE =    24469992.0000
       CONSTANT HEAD = 16774944768.0000         CONSTANT HEAD =     2100312.2500
               WELLS = 14773770240.0000                 WELLS =     1225525.0000
                  ET =           0.0000                    ET =           0.0000
            RECHARGE =203259871232.0000              RECHARGE =    21328528.0000

            TOTAL IN =443468054528.0000              TOTAL IN =    49124356.0000

          OUT:                                     OUT:
          ----                                     ----
             STORAGE = 25197582336.0000               STORAGE =     1481916.1250
       CONSTANT HEAD = 43094151168.0000         CONSTANT HEAD =     3386639.7500
               WELLS =363770216448.0000                 WELLS =    43626540.0000
                  ET = 11405555712.0000                    ET =      629275.6875
            RECHARGE =           0.0000              RECHARGE =           0.0000

           TOTAL OUT =443467497472.0000             TOTAL OUT =    49124372.0000

            IN - OUT =      557056.0000              IN - OUT =         -16.0000

 PERCENT DISCREPANCY =           0.00     PERCENT DISCREPANCY =          -0.00






         TIME SUMMARY AT END OF TIME STEP   12 IN STRESS PERIOD   33
                    SECONDS     MINUTES      HOURS       DAYS        YEARS
                    -----------------------------------------------------------
   TIME STEP LENGTH 2.63520E+06  43920.      732.00      30.500     8.35044E-02
 STRESS PERIOD TIME 3.16224E+07 5.27040E+05  8784.0      366.00      1.0021    
         TOTAL TIME 1.04147E+09 1.73578E+07 2.89296E+05  12054.      33.002    
1
1
                            STRESS PERIOD NO.   34, LENGTH =   365.0000    
                            -----------------------------------------------

                              NUMBER OF TIME STEPS =    12

                               MULTIPLIER FOR DELT =     1.000

                            INITIAL TIME STEP SIZE =   30.41667    

   1755 WELLS

 REUSING SURF FROM LAST STRESS PERIOD

 REUSING EVTR FROM LAST STRESS PERIOD

 REUSING EXDP FROM LAST STRESS PERIOD



                           RECHARGE
 READING ON UNIT   16 WITH FORMAT: (15F5.0)            


     63 TIME-VARIANT SPECIFIED-HEAD CELLS
 
 SOLVING FOR HEAD 
                                                   Max.-Head-Change                         Max.-Flux-Residual
  Residual-Control   Outer-Iter.   Inner-Iter.     Column Row Layer    Maximum-Head-Change  Column Row Layer    Maximum-Flux-Residual          L2-NORM 
          0                 1           7            54  107     2       0.2923002318E+02      62   85    1         0.3125604083E+06      0.1071243826E+07
          0                 2           5            54  107     2      -0.2193120245E+01      77   64    2         0.5731326100E+05      0.1263727556E+06
          0                 3           2            54  107     2      -0.3561494259E-01      24   21    1         0.8425923344E+03      0.1324495893E+04
          0                 4           1            65    2     2       0.6812253858E-03      54   48    1        -0.7234838158E+01      0.9656713288E+01

    ------------------------------------------------
       NWT REQUIRED            4 OUTER ITERATIONS 
       AND A TOTAL OF         15 INNER ITERATIONS.
    ------------------------------------------------

 NO OUTPUT CONTROL FOR STRESS PERIOD   34   TIME STEP    1
 
 SOLVING FOR HEAD 
                                                   Max.-Head-Change                         Max.-Flux-Residual
  Residual-Control   Outer-Iter.   Inner-Iter.     Column Row Layer    Maximum-Head-Change  Column Row Layer    Maximum-Flux-Residual          L2-NORM 
          0                 1           7            59   85     3      -0.5718798073E+01      62   85    1         0.1981501521E+06      0.6977712234E+06
          0                 2           5            59   85     3       0.5110900160E+00      62   85    1        -0.2022951357E+05      0.7105779155E+05
          0                 3           2            61   85     1       0.3850948348E-01      62   85    1        -0.7790305369E+03      0.1468926839E+04
          0                 4           2            61   85     1       0.3539389676E-02      61   85    1         0.7158977729E+02      0.7210772337E+02

    ------------------------------------------------
       NWT REQUIRED            4 OUTER ITERATIONS 
       AND A TOTAL OF         16 INNER ITERATIONS.
    ------------------------------------------------

 NO OUTPUT CONTROL FOR STRESS PERIOD   34   TIME STEP    2
 
 SOLVING FOR HEAD 
                                                   Max.-Head-Change                         Max.-Flux-Residual
  Residual-Control   Outer-Iter.   Inner-Iter.     Column Row Layer    Maximum-Head-Change  Column Row Layer    Maximum-Flux-Residual          L2-NORM 
          0                 1           7            53  106     3       0.5042302685E+01      62   85    1         0.1198422377E+06      0.6091289694E+06
          0                 2           5            80   56     1      -0.3441530623E+01      62   85    1        -0.1830053424E+05      0.6464609563E+05
          0                 3           2            80   56     1       0.2769540166E+00      80   56    1         0.6853922600E+03      0.8910834267E+03
          0                 4           2            80   56     1       0.2903767764E-02      80   56    1         0.7119695552E+01      0.8159675137E+01

    ------------------------------------------------
       NWT REQUIRED            4 OUTER ITERATIONS 
       AND A TOTAL OF         16 INNER ITERATIONS.
    ------------------------------------------------

 NO OUTPUT CONTROL FOR STRESS PERIOD   34   TIME STEP    3
 
 SOLVING FOR HEAD 
                                                   Max.-Head-Change                         Max.-Flux-Residual
  Residual-Control   Outer-Iter.   Inner-Iter.     Column Row Layer    Maximum-Head-Change  Column Row Layer    Maximum-Flux-Residual          L2-NORM 
          0                 1           7            53  106     3       0.4703558960E+01      53  106    3         0.7406837852E+05      0.5644869617E+06
          0                 2           5            54  107     2      -0.2629722542E+01      54  107    2        -0.9012889340E+05      0.1091554156E+06
          0                 3           2            35   29     1       0.3260282383E-01      24   50    3         0.8164419581E+03      0.1014281861E+04
          0                 4           2            54  106     2       0.2235513999E-02      24   50    3         0.8146021785E+03      0.8147727265E+03

    ------------------------------------------------
       NWT REQUIRED            4 OUTER ITERATIONS 
       AND A TOTAL OF         16 INNER ITERATIONS.
    ------------------------------------------------

 NO OUTPUT CONTROL FOR STRESS PERIOD   34   TIME STEP    4

 INTERPOLATION FOR HEAD OBS# 5335, ID 1735-34-152  CHANGED BECAUSE AT LEAST ONE
 NEIGHBORING CELL REQUIRED FOR INTERPOLATION IS DRY OR INACTIVE (OBS2BAS7SE)
 
 SOLVING FOR HEAD 
                                                   Max.-Head-Change                         Max.-Flux-Residual
  Residual-Control   Outer-Iter.   Inner-Iter.     Column Row Layer    Maximum-Head-Change  Column Row Layer    Maximum-Flux-Residual          L2-NORM 
          0                 1           7            53  106     3       0.4383146884E+01      53  106    3         0.6907766380E+05      0.5367403429E+06
          0                 2           5            53  106     3      -0.4075343692E+00      19   18    1        -0.1181550825E+05      0.5700258033E+05
          0                 3           3            24   50     3      -0.1705049906E+00      24   50    3        -0.7819398098E+04      0.9655568597E+04
          0                 4           2            24   50     3       0.1538905406E-01      24   50    3         0.1330838217E+04      0.1625333825E+04
          0                 5           2            49  118     2      -0.1250347508E-02      49  118    2        -0.4490586074E+02      0.6117239679E+02

    ------------------------------------------------
       NWT REQUIRED            5 OUTER ITERATIONS 
       AND A TOTAL OF         19 INNER ITERATIONS.
    ------------------------------------------------

 NO OUTPUT CONTROL FOR STRESS PERIOD   34   TIME STEP    5
 
 SOLVING FOR HEAD 
                                                   Max.-Head-Change                         Max.-Flux-Residual
  Residual-Control   Outer-Iter.   Inner-Iter.     Column Row Layer    Maximum-Head-Change  Column Row Layer    Maximum-Flux-Residual          L2-NORM 
          0                 1           7            53  106     3       0.4010670317E+01      53  106    3         0.6427282610E+05      0.5173898808E+06
          0                 2           5            49  118     2      -0.2090745403E+01      19   72    2        -0.1151005204E+05      0.5464854218E+05
          0                 3           2            49  118     2       0.1669805156E+00      49  118    2         0.4645016243E+03      0.5986548025E+03
          0                 4           2            49  118     2       0.1807947993E-02      49  118    2         0.4969865589E+01      0.5299152422E+01

    ------------------------------------------------
       NWT REQUIRED            4 OUTER ITERATIONS 
       AND A TOTAL OF         16 INNER ITERATIONS.
    ------------------------------------------------

 NO OUTPUT CONTROL FOR STRESS PERIOD   34   TIME STEP    6

 INTERPOLATION FOR HEAD OBS# 3612, ID 1370-34-198  CHANGED BECAUSE AT LEAST ONE
 NEIGHBORING CELL REQUIRED FOR INTERPOLATION IS DRY OR INACTIVE (OBS2BAS7SE)
 
 SOLVING FOR HEAD 
                                                   Max.-Head-Change                         Max.-Flux-Residual
  Residual-Control   Outer-Iter.   Inner-Iter.     Column Row Layer    Maximum-Head-Change  Column Row Layer    Maximum-Flux-Residual          L2-NORM 
          0                 1           7            53  106     3       0.3686418601E+01      53  106    3         0.5892239638E+05      0.5028931526E+06
          0                 2           5            23   44     2      -0.1856475803E+01      20   16    1        -0.6639539770E+04      0.5132157567E+05
          0                 3           2            23   44     2       0.1486905329E+00      56   50    1        -0.1688199880E+04      0.1908647066E+04
          0                 4           2            56   50     1      -0.2372258441E-02      56   50    1        -0.1525913689E+03      0.1527091016E+03

    ------------------------------------------------
       NWT REQUIRED            4 OUTER ITERATIONS 
       AND A TOTAL OF         16 INNER ITERATIONS.
    ------------------------------------------------

 NO OUTPUT CONTROL FOR STRESS PERIOD   34   TIME STEP    7
 
 SOLVING FOR HEAD 
                                                   Max.-Head-Change                         Max.-Flux-Residual
  Residual-Control   Outer-Iter.   Inner-Iter.     Column Row Layer    Maximum-Head-Change  Column Row Layer    Maximum-Flux-Residual          L2-NORM 
          0                 1           7            23   44     2      -0.8518166859E+01      53  106    3         0.5416949193E+05      0.4913464559E+06
          0                 2           5            54  106     2      -0.1767081382E+01      54  106    2        -0.5865133097E+05      0.7715510303E+05
          0                 3           2            30    7     2      -0.1050210722E-01      16   11    1         0.6208126311E+03      0.8585350484E+03
          0                 4           2            30    7     2      -0.9428101141E-03      30    7    2        -0.3721891678E+02      0.3732254464E+02

    ------------------------------------------------
       NWT REQUIRED            4 OUTER ITERATIONS 
       AND A TOTAL OF         16 INNER ITERATIONS.
    ------------------------------------------------

 NO OUTPUT CONTROL FOR STRESS PERIOD   34   TIME STEP    8
 
 SOLVING FOR HEAD 
                                                   Max.-Head-Change                         Max.-Flux-Residual
  Residual-Control   Outer-Iter.   Inner-Iter.     Column Row Layer    Maximum-Head-Change  Column Row Layer    Maximum-Flux-Residual          L2-NORM 
          0                 1           7            53  106     3       0.3120135661E+01      91   67    2         0.4995875500E+05      0.4821856901E+06
          0                 2           5            30    7     2      -0.7812195613E+00      89   65    1        -0.1973762996E+05      0.5398852552E+05
          0                 3           2            30    7     2       0.6834471691E-01      20   15    1        -0.1916406763E+04      0.2252590619E+04
          0                 4           2            20   15     1      -0.1647727102E-02      20   15    1        -0.1725377968E+03      0.1730406647E+03

    ------------------------------------------------
       NWT REQUIRED            4 OUTER ITERATIONS 
       AND A TOTAL OF         16 INNER ITERATIONS.
    ------------------------------------------------

 NO OUTPUT CONTROL FOR STRESS PERIOD   34   TIME STEP    9
 
 SOLVING FOR HEAD 
                                                   Max.-Head-Change                         Max.-Flux-Residual
  Residual-Control   Outer-Iter.   Inner-Iter.     Column Row Layer    Maximum-Head-Change  Column Row Layer    Maximum-Flux-Residual          L2-NORM 
          0                 1           7            53  106     3       0.2878467709E+01      91   67    2         0.4806636974E+05      0.4743213107E+06
          0                 2           5            19   33     2      -0.1569749925E+01      18   13    2         0.1228044280E+05      0.5300209044E+05
          0                 3           3            19   33     2       0.1058460198E+00      60   64    1        -0.6727314398E+04      0.9054676571E+04
          0                 4           2            19   33     2       0.2902917253E-01      56   39    2        -0.5907545895E+04      0.5940361507E+04
          0                 5           3            56   39     2      -0.8486070442E-01      56   39    2        -0.5892466535E+04      0.5892754243E+04
          0                 6           2            56   39     2       0.7709215447E-02      56   39    2         0.7502245784E+03      0.8244869625E+03

    ------------------------------------------------
       NWT REQUIRED            6 OUTER ITERATIONS 
       AND A TOTAL OF         22 INNER ITERATIONS.
    ------------------------------------------------

 NO OUTPUT CONTROL FOR STRESS PERIOD   34   TIME STEP   10
 
 SOLVING FOR HEAD 
                                                   Max.-Head-Change                         Max.-Flux-Residual
  Residual-Control   Outer-Iter.   Inner-Iter.     Column Row Layer    Maximum-Head-Change  Column Row Layer    Maximum-Flux-Residual          L2-NORM 
          0                 1           7            23   41     2      -0.4149909692E+01      53  105    3         0.4652870094E+05      0.4675441189E+06
          0                 2           5            14   22     2      -0.1413552846E+01      61   92    2         0.2497402031E+05      0.5458382923E+05
          0                 3           2            14   22     2       0.1258982897E+00      60   64    1         0.8371325154E+03      0.1272178706E+04
          0                 4           2            14   22     2       0.9473265245E-03      14   22    2         0.3372761016E+01      0.5124982012E+01

    ------------------------------------------------
       NWT REQUIRED            4 OUTER ITERATIONS 
       AND A TOTAL OF         16 INNER ITERATIONS.
    ------------------------------------------------

 NO OUTPUT CONTROL FOR STRESS PERIOD   34   TIME STEP   11
 
 SOLVING FOR HEAD 
                                                   Max.-Head-Change                         Max.-Flux-Residual
  Residual-Control   Outer-Iter.   Inner-Iter.     Column Row Layer    Maximum-Head-Change  Column Row Layer    Maximum-Flux-Residual          L2-NORM 
          0                 1           6            53  106     3       0.2471806196E+01      53  105    3         0.4565728291E+05      0.4608577142E+06
          0                 2           5            53  106     3      -0.2252863784E+00      22   15    2         0.9202552930E+04      0.4764455555E+05
          0                 3           2            62   59     1      -0.4007299917E-01      62   59    1        -0.1851497226E+04      0.2320090179E+04
          0                 4           2            62   59     1      -0.3632817528E-02      62   59    1        -0.1672907213E+03      0.2015594665E+03

    ------------------------------------------------
       NWT REQUIRED            4 OUTER ITERATIONS 
       AND A TOTAL OF         15 INNER ITERATIONS.
    ------------------------------------------------

 OUTPUT CONTROL FOR STRESS PERIOD   34   TIME STEP   12
    SAVE BUDGET
 UBDSV1 SAVING "         STORAGE" ON UNIT  39 AT TIME STEP 12, STRESS PERIOD  34
 UBDSV2 SAVING "   CONSTANT HEAD" ON UNIT  39 AT TIME STEP 12, STRESS PERIOD  34
 UBDSV1 SAVING "FLOW RIGHT FACE " ON UNIT  39 AT TIME STEP 12, STRESS PERIOD  34
 UBDSV1 SAVING "FLOW FRONT FACE " ON UNIT  39 AT TIME STEP 12, STRESS PERIOD  34
 UBDSV1 SAVING "FLOW LOWER FACE " ON UNIT  39 AT TIME STEP 12, STRESS PERIOD  34
 UBDSV4 SAVING "           WELLS" ON UNIT  39 AT TIME STEP 12, STRESS PERIOD  34
 UBDSV3 SAVING "              ET" ON UNIT  39 AT TIME STEP 12, STRESS PERIOD  34
 UBDSV3 SAVING "        RECHARGE" ON UNIT  39 AT TIME STEP 12, STRESS PERIOD  34

 INTERPOLATION FOR HEAD OBS# 1833, ID 1988-35-4    CHANGED BECAUSE AT LEAST ONE
 NEIGHBORING CELL REQUIRED FOR INTERPOLATION IS DRY OR INACTIVE (OBS2BAS7SE)
1
  VOLUMETRIC BUDGET FOR ENTIRE MODEL AT END OF TIME STEP   12, STRESS PERIOD  34
  ------------------------------------------------------------------------------

     CUMULATIVE VOLUMES      L**3       RATES FOR THIS TIME STEP      L**3/T
     ------------------                 ------------------------

           IN:                                      IN:
           ---                                      ---
             STORAGE =217489735680.0000               STORAGE =    23387650.0000
       CONSTANT HEAD = 17545156608.0000         CONSTANT HEAD =     2123753.5000
               WELLS = 15221090304.0000                 WELLS =     1225525.0000
                  ET =           0.0000                    ET =           0.0000
            RECHARGE =211372703744.0000              RECHARGE =    22226804.0000

            TOTAL IN =461628702720.0000              TOTAL IN =    48963732.0000

          OUT:                                     OUT:
          ----                                     ----
             STORAGE = 26050459648.0000               STORAGE =     1581940.1250
       CONSTANT HEAD = 44278149120.0000         CONSTANT HEAD =     3175205.7500
               WELLS =379646312448.0000                 WELLS =    43495704.0000
                  ET = 11653293056.0000                    ET =      710905.8750
            RECHARGE =           0.0000              RECHARGE =           0.0000

           TOTAL OUT =461628211200.0000             TOTAL OUT =    48963752.0000

            IN - OUT =      491520.0000              IN - OUT =         -20.0000

 PERCENT DISCREPANCY =           0.00     PERCENT DISCREPANCY =          -0.00






         TIME SUMMARY AT END OF TIME STEP   12 IN STRESS PERIOD   34
                    SECONDS     MINUTES      HOURS       DAYS        YEARS
                    -----------------------------------------------------------
   TIME STEP LENGTH 2.62800E+06  43800.      730.00      30.417     8.32763E-02
 STRESS PERIOD TIME 3.15360E+07 5.25600E+05  8760.0      365.00     0.99932    
         TOTAL TIME 1.07300E+09 1.78834E+07 2.98056E+05  12419.      34.001    
1
1
                            STRESS PERIOD NO.   35, LENGTH =   365.0000    
                            -----------------------------------------------

                              NUMBER OF TIME STEPS =    12

                               MULTIPLIER FOR DELT =     1.000

                            INITIAL TIME STEP SIZE =   30.41667    

   1773 WELLS

 REUSING SURF FROM LAST STRESS PERIOD

 REUSING EVTR FROM LAST STRESS PERIOD

 REUSING EXDP FROM LAST STRESS PERIOD



                           RECHARGE
 READING ON UNIT   16 WITH FORMAT: (15F5.0)            


     63 TIME-VARIANT SPECIFIED-HEAD CELLS
 
 SOLVING FOR HEAD 
                                                   Max.-Head-Change                         Max.-Flux-Residual
  Residual-Control   Outer-Iter.   Inner-Iter.     Column Row Layer    Maximum-Head-Change  Column Row Layer    Maximum-Flux-Residual          L2-NORM 
          0                 1           7            62   87     3      -0.5200625150E+02      62   87    3        -0.2274211972E+06      0.1028469305E+07
          0                 2           6            91   67     1      -0.1046229724E+02      23   44    2        -0.1293841468E+06      0.1735349270E+06
          0                 3           3            91   67     1       0.8746516639E+00      91   67    2        -0.5956404015E+04      0.1146684518E+05
          0                 4           2            22   44     2       0.6349612911E-01      24   18    1        -0.4267143445E+03      0.4699006732E+03
          0                 5           2            22   44     2       0.6335412447E-02      24   18    1        -0.3836460201E+02      0.4337441628E+02

    ------------------------------------------------
       NWT REQUIRED            5 OUTER ITERATIONS 
       AND A TOTAL OF         20 INNER ITERATIONS.
    ------------------------------------------------

 NO OUTPUT CONTROL FOR STRESS PERIOD   35   TIME STEP    1
 
 SOLVING FOR HEAD 
                                                   Max.-Head-Change                         Max.-Flux-Residual
  Residual-Control   Outer-Iter.   Inner-Iter.     Column Row Layer    Maximum-Head-Change  Column Row Layer    Maximum-Flux-Residual          L2-NORM 
          0                 1           7            62   87     3      -0.4965532999E+01      58   85    3         0.9905644894E+05      0.6635384160E+06
          0                 2           5            23   46     2      -0.1338687629E+02      23   46    2        -0.2803306337E+05      0.7660041964E+05
          0                 3           3            23   46     2       0.1302416706E+01      23   46    2         0.3128560421E+04      0.5353355773E+04
          0                 4           2            23   46     2       0.9586397807E-02      59  100    1        -0.5701141422E+03      0.7989575291E+03

    ------------------------------------------------
       NWT REQUIRED            4 OUTER ITERATIONS 
       AND A TOTAL OF         17 INNER ITERATIONS.
    ------------------------------------------------

 NO OUTPUT CONTROL FOR STRESS PERIOD   35   TIME STEP    2
 
 SOLVING FOR HEAD 
                                                   Max.-Head-Change                         Max.-Flux-Residual
  Residual-Control   Outer-Iter.   Inner-Iter.     Column Row Layer    Maximum-Head-Change  Column Row Layer    Maximum-Flux-Residual          L2-NORM 
          0                 1           7            23   46     2      -0.1016836030E+02      58   85    3         0.7487346387E+05      0.5973762779E+06
          0                 2           5            24   47     2      -0.3029144845E+01      60   62    2         0.9319035704E+04      0.6109107094E+05
          0                 3           3            24   47     2       0.2438453694E+00      24   47    2         0.8545816424E+03      0.9308622077E+03
          0                 4           2            24   47     1       0.2998569851E-02      24   47    1         0.5062497839E+01      0.8229257342E+01

    ------------------------------------------------
       NWT REQUIRED            4 OUTER ITERATIONS 
       AND A TOTAL OF         17 INNER ITERATIONS.
    ------------------------------------------------

 NO OUTPUT CONTROL FOR STRESS PERIOD   35   TIME STEP    3
 
 SOLVING FOR HEAD 
                                                   Max.-Head-Change                         Max.-Flux-Residual
  Residual-Control   Outer-Iter.   Inner-Iter.     Column Row Layer    Maximum-Head-Change  Column Row Layer    Maximum-Flux-Residual          L2-NORM 
          0                 1           7            24   47     2      -0.2353131905E+01      58   85    3         0.5718540946E+05      0.5667154426E+06
          0                 2           5            77   64     1      -0.1165118497E+01      20   17    2         0.6620719619E+04      0.5743065625E+05
          0                 3           2            77   64     1       0.8595897872E-01      20   17    1        -0.4857524779E+03      0.6212909914E+03
          0                 4           2            77   64     1       0.1473912507E-02      20   17    1        -0.4371731675E+02      0.4533331767E+02

    ------------------------------------------------
       NWT REQUIRED            4 OUTER ITERATIONS 
       AND A TOTAL OF         16 INNER ITERATIONS.
    ------------------------------------------------

 NO OUTPUT CONTROL FOR STRESS PERIOD   35   TIME STEP    4
 
 SOLVING FOR HEAD 
                                                   Max.-Head-Change                         Max.-Flux-Residual
  Residual-Control   Outer-Iter.   Inner-Iter.     Column Row Layer    Maximum-Head-Change  Column Row Layer    Maximum-Flux-Residual          L2-NORM 
          0                 1           7            78   57     1      -0.2504674963E+01      89   66    1        -0.5041275054E+05      0.5480392139E+06
          0                 2           5            24   48     2      -0.2927212221E+01      24   48    2        -0.1032945174E+05      0.5734705709E+05
          0                 3           3            24   48     2       0.2359431613E+00      78   55    1        -0.6633078702E+04      0.6859756213E+04
          0                 4           2            78   55     1      -0.1430900556E-01      78   55    1        -0.5981933584E+03      0.5983494214E+03
          0                 5           2            78   55     1      -0.1286828865E-02      78   55    1        -0.5378919984E+02      0.5380007762E+02

    ------------------------------------------------
       NWT REQUIRED            5 OUTER ITERATIONS 
       AND A TOTAL OF         19 INNER ITERATIONS.
    ------------------------------------------------

 NO OUTPUT CONTROL FOR STRESS PERIOD   35   TIME STEP    5
 
 SOLVING FOR HEAD 
                                                   Max.-Head-Change                         Max.-Flux-Residual
  Residual-Control   Outer-Iter.   Inner-Iter.     Column Row Layer    Maximum-Head-Change  Column Row Layer    Maximum-Flux-Residual          L2-NORM 
          0                 1           7            24   48     2      -0.3125550201E+01      89   66    1        -0.4642338752E+05      0.5351712964E+06
          0                 2           5            78   55     1      -0.3645371842E+01      26   16    2         0.1232292693E+05      0.5768435087E+05
          0                 3           3            78   55     1       0.5565080296E+00      78   55    1         0.2096500507E+04      0.2942295658E+04
          0                 4           2            78   55     1       0.5309159608E-02      21   85    2        -0.1070430370E+03      0.1499348506E+03

    ------------------------------------------------
       NWT REQUIRED            4 OUTER ITERATIONS 
       AND A TOTAL OF         17 INNER ITERATIONS.
    ------------------------------------------------

 NO OUTPUT CONTROL FOR STRESS PERIOD   35   TIME STEP    6
 
 SOLVING FOR HEAD 
                                                   Max.-Head-Change                         Max.-Flux-Residual
  Residual-Control   Outer-Iter.   Inner-Iter.     Column Row Layer    Maximum-Head-Change  Column Row Layer    Maximum-Flux-Residual          L2-NORM 
          0                 1           7            53  105     3       0.1705110219E+01      89   66    1        -0.4286453070E+05      0.5255058067E+06
          0                 2           5            21   85     2      -0.8648794475E+00      42   32    1        -0.1393663840E+05      0.5567898794E+05
          0                 3           2            21   85     2       0.5478740811E-01      42   32    1         0.1361501946E+04      0.1920160612E+04
          0                 4           2            21   85     2       0.1496375701E-02      59   87    2         0.4386057880E+01      0.8561731447E+01

    ------------------------------------------------
       NWT REQUIRED            4 OUTER ITERATIONS 
       AND A TOTAL OF         16 INNER ITERATIONS.
    ------------------------------------------------

 NO OUTPUT CONTROL FOR STRESS PERIOD   35   TIME STEP    7
 
 SOLVING FOR HEAD 
                                                   Max.-Head-Change                         Max.-Flux-Residual
  Residual-Control   Outer-Iter.   Inner-Iter.     Column Row Layer    Maximum-Head-Change  Column Row Layer    Maximum-Flux-Residual          L2-NORM 
          0                 1           7            24   46     2      -0.3478701534E+01      88   65    1        -0.4084347282E+05      0.5177971533E+06
          0                 2           5            61   94     2       0.3504487747E+00      61   94    2         0.2497096138E+05      0.6137853745E+05
          0                 3           2            23   18     1      -0.2589274081E-01      23   18    1        -0.2575103938E+04      0.2905888035E+04
          0                 4           2            23   18     1      -0.2332134191E-02      23   18    1        -0.2318952422E+03      0.2340096914E+03

    ------------------------------------------------
       NWT REQUIRED            4 OUTER ITERATIONS 
       AND A TOTAL OF         16 INNER ITERATIONS.
    ------------------------------------------------

 NO OUTPUT CONTROL FOR STRESS PERIOD   35   TIME STEP    8
 
 SOLVING FOR HEAD 
                                                   Max.-Head-Change                         Max.-Flux-Residual
  Residual-Control   Outer-Iter.   Inner-Iter.     Column Row Layer    Maximum-Head-Change  Column Row Layer    Maximum-Flux-Residual          L2-NORM 
          0                 1           7            53  105     3       0.1591499903E+01      88   65    1        -0.3924206357E+05      0.5116891621E+06
          0                 2           5            61   94     1      -0.4844698819E+00      61   94    1        -0.1559563577E+05      0.5480632737E+05
          0                 3           2            61   94     1       0.4343935388E-01      61   94    1         0.1535615227E+04      0.1888878572E+04
          0                 4           1            85   85     2      -0.5141713648E-04      61   94    1         0.1692734510E+01      0.2506848309E+01

    ------------------------------------------------
       NWT REQUIRED            4 OUTER ITERATIONS 
       AND A TOTAL OF         15 INNER ITERATIONS.
    ------------------------------------------------

 NO OUTPUT CONTROL FOR STRESS PERIOD   35   TIME STEP    9
 
 SOLVING FOR HEAD 
                                                   Max.-Head-Change                         Max.-Flux-Residual
  Residual-Control   Outer-Iter.   Inner-Iter.     Column Row Layer    Maximum-Head-Change  Column Row Layer    Maximum-Flux-Residual          L2-NORM 
          0                 1           7            53  105     3       0.1537312511E+01      88   65    1        -0.3774474013E+05      0.5070679313E+06
          0                 2           5            24   44     2      -0.4242970077E+01      61   91    2         0.9062737901E+04      0.5212537059E+05
          0                 3           3            24   44     2       0.1668331807E+01      24   44    2         0.3714719059E+04      0.4960028013E+04
          0                 4           2            24   44     1       0.3229645386E-01      25   44    2        -0.1831359217E+03      0.1908007214E+03
          0                 5           1            25   44     1      -0.6276879874E-03      25   44    2        -0.1426841245E+02      0.1437365696E+02

    ------------------------------------------------
       NWT REQUIRED            5 OUTER ITERATIONS 
       AND A TOTAL OF         18 INNER ITERATIONS.
    ------------------------------------------------

 NO OUTPUT CONTROL FOR STRESS PERIOD   35   TIME STEP   10
 
 SOLVING FOR HEAD 
                                                   Max.-Head-Change                         Max.-Flux-Residual
  Residual-Control   Outer-Iter.   Inner-Iter.     Column Row Layer    Maximum-Head-Change  Column Row Layer    Maximum-Flux-Residual          L2-NORM 
          0                 1           7            53  105     3       0.1484970555E+01      88   65    1        -0.3634231496E+05      0.5024520946E+06
          0                 2           5            73   15     2      -0.6176741859E+00      61   93    2         0.2155525876E+05      0.5590810142E+05
          0                 3           3            61   93     1      -0.1163683568E+00      61   93    1        -0.9755687490E+04      0.9801906123E+04
          0                 4           2            61   93     1      -0.1049548351E-01      61   93    1        -0.8795025415E+03      0.8801134148E+03
          0                 5           2            61   93     1      -0.9444252126E-03      61   93    1        -0.7909492272E+02      0.7913953035E+02

    ------------------------------------------------
       NWT REQUIRED            5 OUTER ITERATIONS 
       AND A TOTAL OF         19 INNER ITERATIONS.
    ------------------------------------------------

 NO OUTPUT CONTROL FOR STRESS PERIOD   35   TIME STEP   11
 
 SOLVING FOR HEAD 
                                                   Max.-Head-Change                         Max.-Flux-Residual
  Residual-Control   Outer-Iter.   Inner-Iter.     Column Row Layer    Maximum-Head-Change  Column Row Layer    Maximum-Flux-Residual          L2-NORM 
          0                 1           7            53  105     3       0.1434509518E+01      88   65    1        -0.3502664739E+05      0.4979989809E+06
          0                 2           5            61   93     1      -0.3082086516E+00      61   93    1        -0.1132135573E+05      0.5137209836E+05
          0                 3           2            61   93     1       0.2764448921E-01      17   14    1        -0.1964384784E+04      0.2296117124E+04
          0                 4           2            17   14     1      -0.1372825162E-02      17   14    1        -0.1768799551E+03      0.1770664842E+03

    ------------------------------------------------
       NWT REQUIRED            4 OUTER ITERATIONS 
       AND A TOTAL OF         16 INNER ITERATIONS.
    ------------------------------------------------

 OUTPUT CONTROL FOR STRESS PERIOD   35   TIME STEP   12
    SAVE BUDGET
 UBDSV1 SAVING "         STORAGE" ON UNIT  39 AT TIME STEP 12, STRESS PERIOD  35
 UBDSV2 SAVING "   CONSTANT HEAD" ON UNIT  39 AT TIME STEP 12, STRESS PERIOD  35
 UBDSV1 SAVING "FLOW RIGHT FACE " ON UNIT  39 AT TIME STEP 12, STRESS PERIOD  35
 UBDSV1 SAVING "FLOW FRONT FACE " ON UNIT  39 AT TIME STEP 12, STRESS PERIOD  35
 UBDSV1 SAVING "FLOW LOWER FACE " ON UNIT  39 AT TIME STEP 12, STRESS PERIOD  35
 UBDSV4 SAVING "           WELLS" ON UNIT  39 AT TIME STEP 12, STRESS PERIOD  35
 UBDSV3 SAVING "              ET" ON UNIT  39 AT TIME STEP 12, STRESS PERIOD  35
 UBDSV3 SAVING "        RECHARGE" ON UNIT  39 AT TIME STEP 12, STRESS PERIOD  35
1
  VOLUMETRIC BUDGET FOR ENTIRE MODEL AT END OF TIME STEP   12, STRESS PERIOD  35
  ------------------------------------------------------------------------------

     CUMULATIVE VOLUMES      L**3       RATES FOR THIS TIME STEP      L**3/T
     ------------------                 ------------------------

           IN:                                      IN:
           ---                                      ---
             STORAGE =227440721920.0000               STORAGE =    26765026.0000
       CONSTANT HEAD = 18329411584.0000         CONSTANT HEAD =     2172373.2500
               WELLS = 15668410368.0000                 WELLS =     1225525.0000
                  ET =           0.0000                    ET =           0.0000
            RECHARGE =218452361216.0000              RECHARGE =    19396166.0000

            TOTAL IN =479890898944.0000              TOTAL IN =    49559092.0000

          OUT:                                     OUT:
          ----                                     ----
             STORAGE = 26464153600.0000               STORAGE =      774349.1875
       CONSTANT HEAD = 45413838848.0000         CONSTANT HEAD =     3073010.7500
               WELLS =396160598016.0000                 WELLS =    45244956.0000
                  ET = 11851682816.0000                    ET =      466790.4688
            RECHARGE =           0.0000              RECHARGE =           0.0000

           TOTAL OUT =479890276352.0000             TOTAL OUT =    49559108.0000

            IN - OUT =      622592.0000              IN - OUT =         -16.0000

 PERCENT DISCREPANCY =           0.00     PERCENT DISCREPANCY =          -0.00






         TIME SUMMARY AT END OF TIME STEP   12 IN STRESS PERIOD   35
                    SECONDS     MINUTES      HOURS       DAYS        YEARS
                    -----------------------------------------------------------
   TIME STEP LENGTH 2.62800E+06  43800.      730.00      30.417     8.32763E-02
 STRESS PERIOD TIME 3.15360E+07 5.25600E+05  8760.0      365.00     0.99932    
         TOTAL TIME 1.10454E+09 1.84090E+07 3.06817E+05  12784.      35.001    
1
1
                            STRESS PERIOD NO.   36, LENGTH =   365.0000    
                            -----------------------------------------------

                              NUMBER OF TIME STEPS =    12

                               MULTIPLIER FOR DELT =     1.000

                            INITIAL TIME STEP SIZE =   30.41667    

   1822 WELLS

 REUSING SURF FROM LAST STRESS PERIOD

 REUSING EVTR FROM LAST STRESS PERIOD

 REUSING EXDP FROM LAST STRESS PERIOD



                           RECHARGE
 READING ON UNIT   16 WITH FORMAT: (15F5.0)            


     63 TIME-VARIANT SPECIFIED-HEAD CELLS
 
 SOLVING FOR HEAD 
                                                   Max.-Head-Change                         Max.-Flux-Residual
  Residual-Control   Outer-Iter.   Inner-Iter.     Column Row Layer    Maximum-Head-Change  Column Row Layer    Maximum-Flux-Residual          L2-NORM 
          0                 1           7            63   96     3      -0.1353683302E+03      61   96    3         0.5276828134E+06      0.1556381102E+07
          0                 2           5            23   46     2      -0.1180009054E+02      23   46    2        -0.2980794804E+06      0.4293072012E+06
          0                 3           4            23   45     2       0.1805745389E+01      23   46    2        -0.1787499377E+05      0.2064605759E+05
          0                 4           3            23   45     2       0.2121554900E+00      23   47    2         0.4285315822E+03      0.9967236260E+03
          0                 5           2            23   45     2       0.2098684719E-01      23   47    2         0.3986860567E+02      0.9114034986E+02
          0                 6           2            23   45     2       0.2054383457E-02      23   45    2         0.3892176951E+01      0.8750602058E+01

    ------------------------------------------------
       NWT REQUIRED            6 OUTER ITERATIONS 
       AND A TOTAL OF         23 INNER ITERATIONS.
    ------------------------------------------------

 NO OUTPUT CONTROL FOR STRESS PERIOD   36   TIME STEP    1
 
 SOLVING FOR HEAD 
                                                   Max.-Head-Change                         Max.-Flux-Residual
  Residual-Control   Outer-Iter.   Inner-Iter.     Column Row Layer    Maximum-Head-Change  Column Row Layer    Maximum-Flux-Residual          L2-NORM 
          0                 1           7            63   96     3      -0.2447673745E+02      58  110    1        -0.2221023913E+06      0.8185327030E+06
          0                 2           5            23   40     2      -0.1699076761E+01      19   72    3         0.3436309457E+05      0.9097736248E+05
          0                 3           3            53  117     1      -0.2402207838E+00      53  117    1        -0.1400253875E+05      0.1403066171E+05
          0                 4           2            53  117     1      -0.2174924899E-01      53  117    1        -0.1266178780E+04      0.1266330181E+04
          0                 5           2            53  117     1      -0.1958547693E-02      53  117    1        -0.1139509690E+03      0.1139685629E+03

    ------------------------------------------------
       NWT REQUIRED            5 OUTER ITERATIONS 
       AND A TOTAL OF         19 INNER ITERATIONS.
    ------------------------------------------------

 NO OUTPUT CONTROL FOR STRESS PERIOD   36   TIME STEP    2

 INTERPOLATION FOR HEAD OBS# 1740, ID 2615-36-64   CHANGED BECAUSE AT LEAST ONE
 NEIGHBORING CELL REQUIRED FOR INTERPOLATION IS DRY OR INACTIVE (OBS2BAS7SE)

 INTERPOLATION FOR HEAD OBS# 8382, ID 1428-36-91   CHANGED BECAUSE AT LEAST ONE
 NEIGHBORING CELL REQUIRED FOR INTERPOLATION IS DRY OR INACTIVE (OBS2BAS7SE)
 
 SOLVING FOR HEAD 
                                                   Max.-Head-Change                         Max.-Flux-Residual
  Residual-Control   Outer-Iter.   Inner-Iter.     Column Row Layer    Maximum-Head-Change  Column Row Layer    Maximum-Flux-Residual          L2-NORM 
          0                 1           7            64   96     3      -0.9393109897E+01      62   94    1        -0.1402706281E+06      0.6997872097E+06
          0                 2           5            64   96     3       0.8411779830E+00      53  117    1        -0.1588796734E+05      0.7157747688E+05
          0                 3           2            53  117     1       0.6367799976E-01      53  117    1         0.1566201664E+04      0.1861587309E+04
          0                 4           1            17   13     1      -0.5581994993E-03      17   13    1        -0.7480449963E+02      0.7494426704E+02

    ------------------------------------------------
       NWT REQUIRED            4 OUTER ITERATIONS 
       AND A TOTAL OF         15 INNER ITERATIONS.
    ------------------------------------------------

 NO OUTPUT CONTROL FOR STRESS PERIOD   36   TIME STEP    3
 
 SOLVING FOR HEAD 
                                                   Max.-Head-Change                         Max.-Flux-Residual
  Residual-Control   Outer-Iter.   Inner-Iter.     Column Row Layer    Maximum-Head-Change  Column Row Layer    Maximum-Flux-Residual          L2-NORM 
          0                 1           7            65   96     3      -0.5691852495E+01      61   95    2        -0.1296861068E+06      0.6561750618E+06
          0                 2           5            58  119     1      -0.6238183516E+00      61   95    2         0.1284173216E+05      0.6857664209E+05
          0                 3           2            58  119     1       0.5462144967E-01      17   13    1         0.7321217088E+03      0.1169698048E+04
          0                 4           1            24   45     1       0.5559469350E-03      58  119    1         0.1203645356E+01      0.2837342617E+01

    ------------------------------------------------
       NWT REQUIRED            4 OUTER ITERATIONS 
       AND A TOTAL OF         15 INNER ITERATIONS.
    ------------------------------------------------

 NO OUTPUT CONTROL FOR STRESS PERIOD   36   TIME STEP    4
 
 SOLVING FOR HEAD 
                                                   Max.-Head-Change                         Max.-Flux-Residual
  Residual-Control   Outer-Iter.   Inner-Iter.     Column Row Layer    Maximum-Head-Change  Column Row Layer    Maximum-Flux-Residual          L2-NORM 
          0                 1           7            65   96     3      -0.3983102236E+01      61   95    2        -0.1087129408E+06      0.6268122331E+06
          0                 2           5            19   72     1      -0.7222111537E+00      80   57    2         0.1164564750E+05      0.6460381638E+05
          0                 3           3            19   72     2       0.6257912039E-01      45   29    1        -0.1458231690E+04      0.2181546143E+04
          0                 4           2            52  117     1      -0.2116990954E-02      45   29    1        -0.1313023174E+03      0.1706886367E+03

    ------------------------------------------------
       NWT REQUIRED            4 OUTER ITERATIONS 
       AND A TOTAL OF         17 INNER ITERATIONS.
    ------------------------------------------------

 NO OUTPUT CONTROL FOR STRESS PERIOD   36   TIME STEP    5

 INTERPOLATION FOR HEAD OBS# 6307, ID 773-36-156   CHANGED BECAUSE AT LEAST ONE
 NEIGHBORING CELL REQUIRED FOR INTERPOLATION IS DRY OR INACTIVE (OBS2BAS7SE)
 
 SOLVING FOR HEAD 
                                                   Max.-Head-Change                         Max.-Flux-Residual
  Residual-Control   Outer-Iter.   Inner-Iter.     Column Row Layer    Maximum-Head-Change  Column Row Layer    Maximum-Flux-Residual          L2-NORM 
          0                 1           7            62   96     3      -0.3258676197E+01      61   95    2        -0.9437281111E+05      0.6076415637E+06
          0                 2           5            52  117     1      -0.7095536909E+00      52  117    1        -0.1109236536E+05      0.6248913945E+05
          0                 3           2            52  117     1       0.6312843861E-01      52  117    1         0.1087692269E+04      0.1509785409E+04
          0                 4           1            52  117     1       0.1115765472E-03      52  117    1         0.1896601230E+01      0.3400295671E+01

    ------------------------------------------------
       NWT REQUIRED            4 OUTER ITERATIONS 
       AND A TOTAL OF         15 INNER ITERATIONS.
    ------------------------------------------------

 NO OUTPUT CONTROL FOR STRESS PERIOD   36   TIME STEP    6
 
 SOLVING FOR HEAD 
                                                   Max.-Head-Change                         Max.-Flux-Residual
  Residual-Control   Outer-Iter.   Inner-Iter.     Column Row Layer    Maximum-Head-Change  Column Row Layer    Maximum-Flux-Residual          L2-NORM 
          0                 1           7            62   96     3      -0.2976089184E+01      62   94    1        -0.8611400818E+05      0.5946149940E+06
          0                 2           5            62   96     3       0.2688729405E+00      62   94    1         0.8442568148E+04      0.6020640522E+05
          0                 3           2            63   96     3       0.3602760324E-01      81   45    1         0.3691775246E+03      0.3897712562E+03
          0                 4           1            64   95     3      -0.6442709898E-04      22   18    1        -0.4767470330E+01      0.4879143160E+01

    ------------------------------------------------
       NWT REQUIRED            4 OUTER ITERATIONS 
       AND A TOTAL OF         15 INNER ITERATIONS.
    ------------------------------------------------

 NO OUTPUT CONTROL FOR STRESS PERIOD   36   TIME STEP    7
 
 SOLVING FOR HEAD 
                                                   Max.-Head-Change                         Max.-Flux-Residual
  Residual-Control   Outer-Iter.   Inner-Iter.     Column Row Layer    Maximum-Head-Change  Column Row Layer    Maximum-Flux-Residual          L2-NORM 
          0                 1           7            62   96     3      -0.2721910352E+01      62   94    1        -0.8095816949E+05      0.5845030133E+06
          0                 2           5            63   96     3       0.1605687690E+01      63   96    3         0.2642256955E+05      0.6533819968E+05
          0                 3           2            64   28     1       0.2942796842E-01      22   18    1         0.5410798414E+03      0.9248945239E+03
          0                 4           1            89   65     1       0.1189343777E-03      89   65    1         0.1110897738E+01      0.2203030541E+01

    ------------------------------------------------
       NWT REQUIRED            4 OUTER ITERATIONS 
       AND A TOTAL OF         15 INNER ITERATIONS.
    ------------------------------------------------

 NO OUTPUT CONTROL FOR STRESS PERIOD   36   TIME STEP    8
 
 SOLVING FOR HEAD 
                                                   Max.-Head-Change                         Max.-Flux-Residual
  Residual-Control   Outer-Iter.   Inner-Iter.     Column Row Layer    Maximum-Head-Change  Column Row Layer    Maximum-Flux-Residual          L2-NORM 
          0                 1           7            62   96     3      -0.2386938373E+01      62   94    1        -0.7595674570E+05      0.5759158353E+06
          0                 2           5            62   96     3       0.2168014017E+00      38   25    2         0.8150281037E+04      0.5854213219E+05
          0                 3           2            71   19     2      -0.3867179748E-01      71   19    2        -0.1285230731E+04      0.1432235963E+04
          0                 4           2            71   19     2      -0.3481071766E-02      71   19    2        -0.1156760990E+03      0.1280189415E+03

    ------------------------------------------------
       NWT REQUIRED            4 OUTER ITERATIONS 
       AND A TOTAL OF         16 INNER ITERATIONS.
    ------------------------------------------------

 NO OUTPUT CONTROL FOR STRESS PERIOD   36   TIME STEP    9
 
 SOLVING FOR HEAD 
                                                   Max.-Head-Change                         Max.-Flux-Residual
  Residual-Control   Outer-Iter.   Inner-Iter.     Column Row Layer    Maximum-Head-Change  Column Row Layer    Maximum-Flux-Residual          L2-NORM 
          0                 1           7            62   96     3      -0.2160843074E+01      62   94    1        -0.7215991177E+05      0.5688071712E+06
          0                 2           5            71   19     2      -0.1116009191E+01      62   94    1         0.6992382254E+04      0.5728030492E+05
          0                 3           2            71   19     2       0.8907630730E-01      71   19    2         0.2250239962E+03      0.3462217094E+03
          0                 4           2            71   19     2       0.9844543446E-03      71   19    2         0.2467341796E+01      0.2752266547E+01

    ------------------------------------------------
       NWT REQUIRED            4 OUTER ITERATIONS 
       AND A TOTAL OF         16 INNER ITERATIONS.
    ------------------------------------------------

 NO OUTPUT CONTROL FOR STRESS PERIOD   36   TIME STEP   10
 
 SOLVING FOR HEAD 
                                                   Max.-Head-Change                         Max.-Flux-Residual
  Residual-Control   Outer-Iter.   Inner-Iter.     Column Row Layer    Maximum-Head-Change  Column Row Layer    Maximum-Flux-Residual          L2-NORM 
          0                 1           7            62   94     1      -0.2000644949E+01      62   94    1        -0.6919228994E+05      0.5629005533E+06
          0                 2           5            36   29     1      -0.1958264869E+00      36   25    2         0.7757999748E+04      0.5735127014E+05
          0                 3           2            77   65     1      -0.8346381765E-01      77   65    1        -0.2983289784E+04      0.3008720527E+04
          0                 4           2            77   65     1      -0.7518471922E-02      77   65    1        -0.2686772413E+03      0.2687124691E+03

    ------------------------------------------------
       NWT REQUIRED            4 OUTER ITERATIONS 
       AND A TOTAL OF         16 INNER ITERATIONS.
    ------------------------------------------------

 NO OUTPUT CONTROL FOR STRESS PERIOD   36   TIME STEP   11

 INTERPOLATION FOR HEAD OBS# 5694, ID 1168-36-335  CHANGED BECAUSE AT LEAST ONE
 NEIGHBORING CELL REQUIRED FOR INTERPOLATION IS DRY OR INACTIVE (OBS2BAS7SE)
 
 SOLVING FOR HEAD 
                                                   Max.-Head-Change                         Max.-Flux-Residual
  Residual-Control   Outer-Iter.   Inner-Iter.     Column Row Layer    Maximum-Head-Change  Column Row Layer    Maximum-Flux-Residual          L2-NORM 
          0                 1           7            62   94     1      -0.1942927904E+01      62   94    1        -0.6681761966E+05      0.5577103099E+06
          0                 2           5            77   65     1      -0.2129609615E+01      44   36    1        -0.8734770480E+04      0.5768532165E+05
          0                 3           2            77   65     1       0.1658531515E+00      44   36    1         0.8567495083E+03      0.1640598788E+04
          0                 4           2            77   65     1       0.2186146518E-02      79   54    2         0.4499946718E+03      0.4576011037E+03

    ------------------------------------------------
       NWT REQUIRED            4 OUTER ITERATIONS 
       AND A TOTAL OF         16 INNER ITERATIONS.
    ------------------------------------------------

 OUTPUT CONTROL FOR STRESS PERIOD   36   TIME STEP   12
    SAVE BUDGET
    SAVE HEAD FOR LAYERS:   1  2  3
 UBDSV1 SAVING "         STORAGE" ON UNIT  39 AT TIME STEP 12, STRESS PERIOD  36
 UBDSV2 SAVING "   CONSTANT HEAD" ON UNIT  39 AT TIME STEP 12, STRESS PERIOD  36
 UBDSV1 SAVING "FLOW RIGHT FACE " ON UNIT  39 AT TIME STEP 12, STRESS PERIOD  36
 UBDSV1 SAVING "FLOW FRONT FACE " ON UNIT  39 AT TIME STEP 12, STRESS PERIOD  36
 UBDSV1 SAVING "FLOW LOWER FACE " ON UNIT  39 AT TIME STEP 12, STRESS PERIOD  36
 UBDSV4 SAVING "           WELLS" ON UNIT  39 AT TIME STEP 12, STRESS PERIOD  36
 UBDSV3 SAVING "              ET" ON UNIT  39 AT TIME STEP 12, STRESS PERIOD  36
 UBDSV3 SAVING "        RECHARGE" ON UNIT  39 AT TIME STEP 12, STRESS PERIOD  36

 HEAD WILL BE SAVED ON UNIT   31 AT END OF TIME STEP   12, STRESS PERIOD   36
1
  VOLUMETRIC BUDGET FOR ENTIRE MODEL AT END OF TIME STEP   12, STRESS PERIOD  36
  ------------------------------------------------------------------------------

     CUMULATIVE VOLUMES      L**3       RATES FOR THIS TIME STEP      L**3/T
     ------------------                 ------------------------

           IN:                                      IN:
           ---                                      ---
             STORAGE =238204256256.0000               STORAGE =    28908306.0000
       CONSTANT HEAD = 19169970176.0000         CONSTANT HEAD =     2379583.7500
               WELLS = 16115730432.0000                 WELLS =     1225525.0000
                  ET =           0.0000                    ET =           0.0000
            RECHARGE =225606926336.0000              RECHARGE =    19601790.0000

            TOTAL IN =499096879104.0000              TOTAL IN =    52115208.0000

          OUT:                                     OUT:
          ----                                     ----
             STORAGE = 26790891520.0000               STORAGE =      500271.0625
       CONSTANT HEAD = 46487343104.0000         CONSTANT HEAD =     2878768.2500
               WELLS =413828186112.0000                 WELLS =    48404640.0000
                  ET = 11989805056.0000                    ET =      331075.1250
            RECHARGE =           0.0000              RECHARGE =           0.0000

           TOTAL OUT =499096223744.0000             TOTAL OUT =    52114756.0000

            IN - OUT =      655360.0000              IN - OUT =         452.0000

 PERCENT DISCREPANCY =           0.00     PERCENT DISCREPANCY =           0.00






         TIME SUMMARY AT END OF TIME STEP   12 IN STRESS PERIOD   36
                    SECONDS     MINUTES      HOURS       DAYS        YEARS
                    -----------------------------------------------------------
   TIME STEP LENGTH 2.62800E+06  43800.      730.00      30.417     8.32763E-02
 STRESS PERIOD TIME 3.15360E+07 5.25600E+05  8760.0      365.00     0.99932    
         TOTAL TIME 1.13608E+09 1.89346E+07 3.15577E+05  13149.      36.000    
1
1
                            STRESS PERIOD NO.   37, LENGTH =   366.0000    
                            -----------------------------------------------

                              NUMBER OF TIME STEPS =    12

                               MULTIPLIER FOR DELT =     1.000

                            INITIAL TIME STEP SIZE =   30.50000    

   1704 WELLS

 REUSING SURF FROM LAST STRESS PERIOD

 REUSING EVTR FROM LAST STRESS PERIOD

 REUSING EXDP FROM LAST STRESS PERIOD



                           RECHARGE
 READING ON UNIT   16 WITH FORMAT: (15F5.0)            


     63 TIME-VARIANT SPECIFIED-HEAD CELLS
 
 SOLVING FOR HEAD 
                                                   Max.-Head-Change                         Max.-Flux-Residual
  Residual-Control   Outer-Iter.   Inner-Iter.     Column Row Layer    Maximum-Head-Change  Column Row Layer    Maximum-Flux-Residual          L2-NORM 
          0                 1           7            62   87     3      -0.6323579644E+02      53  118    2         0.5909420675E+06      0.1289201761E+07
          0                 2           5            62   87     3       0.5806933433E+01      53  118    2        -0.5950018850E+05      0.1328554453E+06
          0                 3           2            50  115     2       0.1975112022E+00      60   65    1         0.1668887538E+04      0.2520287419E+04
          0                 4           2            50  115     2       0.2819201726E-02      79   54    2         0.6119098567E+03      0.6134315302E+03

    ------------------------------------------------
       NWT REQUIRED            4 OUTER ITERATIONS 
       AND A TOTAL OF         16 INNER ITERATIONS.
    ------------------------------------------------

 NO OUTPUT CONTROL FOR STRESS PERIOD   37   TIME STEP    1

 INTERPOLATION FOR HEAD OBS# 1762, ID 2498-37-34   CHANGED BECAUSE AT LEAST ONE
 NEIGHBORING CELL REQUIRED FOR INTERPOLATION IS DRY OR INACTIVE (OBS2BAS7SE)

 INTERPOLATION FOR HEAD OBS# 7000, ID 683-37-32    CHANGED BECAUSE AT LEAST ONE
 NEIGHBORING CELL REQUIRED FOR INTERPOLATION IS DRY OR INACTIVE (OBS2BAS7SE)

 INTERPOLATION FOR HEAD OBS# 7378, ID 451-37-32    CHANGED BECAUSE AT LEAST ONE
 NEIGHBORING CELL REQUIRED FOR INTERPOLATION IS DRY OR INACTIVE (OBS2BAS7SE)
 
 SOLVING FOR HEAD 
                                                   Max.-Head-Change                         Max.-Flux-Residual
  Residual-Control   Outer-Iter.   Inner-Iter.     Column Row Layer    Maximum-Head-Change  Column Row Layer    Maximum-Flux-Residual          L2-NORM 
          0                 1           7            69   63     3      -0.1011987621E+02      56   98    3        -0.2112912988E+06      0.7110694251E+06
          0                 2           5            69   63     3       0.9199420227E+00      56   98    3         0.2067940967E+05      0.7123748094E+05
          0                 3           2            51   44     1       0.6319393711E-02      79   54    2        -0.2059165207E+04      0.2076161404E+04
          0                 4           1            79   54     2      -0.1148681597E-03      79   54    2        -0.2056315893E+04      0.2056322655E+04
          0                 5           1            79   54     2      -0.1146611838E-03      79   54    2        -0.2053067340E+04      0.2053073185E+04
          0                 6           1            79   54     2      -0.1144264006E-03      79   54    2        -0.2049321679E+04      0.2049327480E+04
          0                 7           2            79   54     2      -0.6444545238E-01      79   54    2        -0.2045326009E+04      0.2045331797E+04
          0                 8           2            79   54     2       0.5858140342E-02      79   54    2         0.2131847481E+03      0.2171426839E+03

    ------------------------------------------------
       NWT REQUIRED            8 OUTER ITERATIONS 
       AND A TOTAL OF         21 INNER ITERATIONS.
    ------------------------------------------------

 NO OUTPUT CONTROL FOR STRESS PERIOD   37   TIME STEP    2
 
 SOLVING FOR HEAD 
                                                   Max.-Head-Change                         Max.-Flux-Residual
  Residual-Control   Outer-Iter.   Inner-Iter.     Column Row Layer    Maximum-Head-Change  Column Row Layer    Maximum-Flux-Residual          L2-NORM 
          0                 1           7            56   98     3      -0.8114050888E+01      56   98    3        -0.1886303600E+06      0.6190354484E+06
          0                 2           5            80   57     1      -0.7739428113E+00      56   98    3         0.1850855658E+05      0.6207316909E+05
          0                 3           2            30   41     2      -0.1861549531E+00      30   41    2        -0.4220874205E+04      0.4514431951E+04
          0                 4           2            30   41     1      -0.1718348705E-01      19   35    3        -0.1479410710E+04      0.1528063937E+04
          0                 5           2            30   41     1      -0.1576218088E-02      19   35    3        -0.1476870215E+04      0.1477275527E+04
          0                 6           1            30   41     1      -0.1441732496E-03      19   35    3        -0.1474665609E+04      0.1474672852E+04
          0                 7           1            19   35     2      -0.6609489910E-04      19   35    3        -0.1471531014E+04      0.1471534755E+04
          0                 8           1            19   35     2      -0.6595807540E-04      19   35    3        -0.1468558813E+04      0.1468562545E+04
          0                 9           1            19   35     2      -0.6583079369E-04      19   35    3        -0.1465595732E+04      0.1465599471E+04
          0                10           1            19   35     2      -0.6570275052E-04      19   35    3        -0.1462620912E+04      0.1462624649E+04
                                                   Max.-Head-Change                         Max.-Flux-Residual
  Residual-Control   Outer-Iter.   Inner-Iter.     Column Row Layer    Maximum-Head-Change  Column Row Layer    Maximum-Flux-Residual          L2-NORM 
          0                11           1            19   35     2      -0.6557384531E-04      19   35    3        -0.1459629317E+04      0.1459633048E+04
          0                12           1            19   35     2      -0.6544406052E-04      19   35    3        -0.1456619368E+04      0.1456623092E+04
          0                13           1            19   35     2      -0.6531339476E-04      19   35    3        -0.1453590570E+04      0.1453594287E+04
          0                14           1            19   35     2      -0.6518185164E-04      19   35    3        -0.1450542828E+04      0.1450546537E+04
          0                15           1            19   35     2      -0.6504943591E-04      19   35    3        -0.1447476212E+04      0.1447479913E+04
          0                16           1            19   35     2      -0.6491615780E-04      19   35    3        -0.1444390859E+04      0.1444394552E+04
          0                17           1            19   35     2      -0.6478202274E-04      19   35    3        -0.1441286938E+04      0.1441290623E+04
          0                18           1            19   35     2      -0.6464704005E-04      19   35    3        -0.1438164633E+04      0.1438168310E+04
          0                19           1            19   35     2      -0.6451121791E-04      19   35    3        -0.1435024133E+04      0.1435027802E+04
          0                20           1            19   35     2      -0.6437456564E-04      19   35    3        -0.1431865632E+04      0.1431869292E+04
                                                   Max.-Head-Change                         Max.-Flux-Residual
  Residual-Control   Outer-Iter.   Inner-Iter.     Column Row Layer    Maximum-Head-Change  Column Row Layer    Maximum-Flux-Residual          L2-NORM 
          0                21           1            19   35     2      -0.6423709030E-04      19   35    3        -0.1428689324E+04      0.1428692976E+04
          0                22           1            19   35     2      -0.6409880326E-04      19   35    3        -0.1425495406E+04      0.1425499050E+04
          0                23           1            19   35     2      -0.6395971021E-04      19   35    3        -0.1422284075E+04      0.1422287711E+04
          0                24           1            19   35     2      -0.6381982140E-04      19   35    3        -0.1419055529E+04      0.1419059157E+04
          0                25           1            19   35     2      -0.6367914550E-04      19   35    3        -0.1415809966E+04      0.1415813585E+04
          0                26           1            19   35     2      -0.6353769092E-04      19   35    3        -0.1412547585E+04      0.1412551195E+04
          0                27           1            19   35     2      -0.6339546611E-04      19   35    3        -0.1409268584E+04      0.1409272185E+04
          0                28           1            19   35     2      -0.6325247997E-04      19   35    3        -0.1405973163E+04      0.1405976756E+04
          0                29           1            19   35     2      -0.6310874275E-04      19   35    3        -0.1402661521E+04      0.1402665106E+04
          0                30           3            19   35     3      -0.2660902124E-01      19   35    3        -0.1399339742E+04      0.1399343317E+04
          0                31           2            20   34     3      -0.1095024557E-02      20   34    3        -0.7363325933E+02      0.1257666186E+03

    ------------------------------------------------
       NWT REQUIRED           31 OUTER ITERATIONS 
       AND A TOTAL OF         47 INNER ITERATIONS.
    ------------------------------------------------

 NO OUTPUT CONTROL FOR STRESS PERIOD   37   TIME STEP    3
 
 SOLVING FOR HEAD 
                                                   Max.-Head-Change                         Max.-Flux-Residual
  Residual-Control   Outer-Iter.   Inner-Iter.     Column Row Layer    Maximum-Head-Change  Column Row Layer    Maximum-Flux-Residual          L2-NORM 
          0                 1           7            56   98     3      -0.7326515506E+01      56   98    3        -0.1693854605E+06      0.5762261299E+06
          0                 2           5            30   41     2      -0.2512918675E+01      60   90    3         0.1771122846E+05      0.6124671617E+05
          0                 3           3            30   41     2       0.1605311531E+00      39   29    1         0.6154466316E+03      0.7599702122E+03
          0                 4           2            30   41     1       0.4264014672E-02      49   35    2        -0.5765999008E+01      0.9637772827E+01

    ------------------------------------------------
       NWT REQUIRED            4 OUTER ITERATIONS 
       AND A TOTAL OF         17 INNER ITERATIONS.
    ------------------------------------------------

 NO OUTPUT CONTROL FOR STRESS PERIOD   37   TIME STEP    4
 
 SOLVING FOR HEAD 
                                                   Max.-Head-Change                         Max.-Flux-Residual
  Residual-Control   Outer-Iter.   Inner-Iter.     Column Row Layer    Maximum-Head-Change  Column Row Layer    Maximum-Flux-Residual          L2-NORM 
          0                 1           6            56   98     3      -0.6647081876E+01      56   98    3        -0.1529090444E+06      0.5514798421E+06
          0                 2           5            51  103     3       0.3052869984E+01      62   94    2         0.4735412970E+05      0.7298291759E+05
          0                 3           2            51  103     3      -0.2775337180E+00      51  103    3        -0.3908444113E+03      0.4622637505E+03
          0                 4           1            85   85     2      -0.6661872312E-04      62   94    1        -0.1405422658E+01      0.1658462907E+01

    ------------------------------------------------
       NWT REQUIRED            4 OUTER ITERATIONS 
       AND A TOTAL OF         14 INNER ITERATIONS.
    ------------------------------------------------

 NO OUTPUT CONTROL FOR STRESS PERIOD   37   TIME STEP    5
 
 SOLVING FOR HEAD 
                                                   Max.-Head-Change                         Max.-Flux-Residual
  Residual-Control   Outer-Iter.   Inner-Iter.     Column Row Layer    Maximum-Head-Change  Column Row Layer    Maximum-Flux-Residual          L2-NORM 
          0                 1           6            51  103     3       0.1307673626E+02      56   98    3        -0.1387006730E+06      0.5340986965E+06
          0                 2           5            23   44     2      -0.1260204927E+01      56   98    3         0.1368304183E+05      0.5418458505E+05
          0                 3           2            23   44     2       0.9720556504E-01      23   44    2         0.1252435500E+03      0.1798691032E+03
          0                 4           2            23   44     2       0.1301611308E-02      35   26    1        -0.1794161424E+01      0.3083258188E+01

    ------------------------------------------------
       NWT REQUIRED            4 OUTER ITERATIONS 
       AND A TOTAL OF         15 INNER ITERATIONS.
    ------------------------------------------------

 NO OUTPUT CONTROL FOR STRESS PERIOD   37   TIME STEP    6
 
 SOLVING FOR HEAD 
                                                   Max.-Head-Change                         Max.-Flux-Residual
  Residual-Control   Outer-Iter.   Inner-Iter.     Column Row Layer    Maximum-Head-Change  Column Row Layer    Maximum-Flux-Residual          L2-NORM 
          0                 1           6            56   98     3      -0.5541885907E+01      56   98    3        -0.1263683448E+06      0.5226250664E+06
          0                 2           5            56   98     3       0.4932369787E+00      56   98    3         0.1248251960E+05      0.5466844298E+05
          0                 3           2            62   94     1       0.1074146812E-01      62   94    1         0.5762620754E+03      0.7204961953E+03
          0                 4           1            85   85     2      -0.7009790329E-04      35   26    1        -0.3210711822E+01      0.3337963374E+01

    ------------------------------------------------
       NWT REQUIRED            4 OUTER ITERATIONS 
       AND A TOTAL OF         14 INNER ITERATIONS.
    ------------------------------------------------

 NO OUTPUT CONTROL FOR STRESS PERIOD   37   TIME STEP    7
 
 SOLVING FOR HEAD 
                                                   Max.-Head-Change                         Max.-Flux-Residual
  Residual-Control   Outer-Iter.   Inner-Iter.     Column Row Layer    Maximum-Head-Change  Column Row Layer    Maximum-Flux-Residual          L2-NORM 
          0                 1           6            56   98     3      -0.5089448950E+01      56   98    3        -0.1156010475E+06      0.5130800749E+06
          0                 2           5            60   90     2      -0.1121225774E+01      56   98    3         0.1143163338E+05      0.5325264911E+05
          0                 3           3            60   90     2       0.9456336693E-01      60   90    2         0.1074498133E+04      0.1270325331E+04
          0                 4           1            60   90     1       0.6999724145E-03      60   90    2         0.3333048914E+01      0.6228281065E+01

    ------------------------------------------------
       NWT REQUIRED            4 OUTER ITERATIONS 
       AND A TOTAL OF         15 INNER ITERATIONS.
    ------------------------------------------------

 NO OUTPUT CONTROL FOR STRESS PERIOD   37   TIME STEP    8
 
 SOLVING FOR HEAD 
                                                   Max.-Head-Change                         Max.-Flux-Residual
  Residual-Control   Outer-Iter.   Inner-Iter.     Column Row Layer    Maximum-Head-Change  Column Row Layer    Maximum-Flux-Residual          L2-NORM 
          0                 1           6            56   98     3      -0.4690222947E+01      56   98    3        -0.1061491468E+06      0.5074942992E+06
          0                 2           5            66  101     1      -0.9942248819E+00      60   87    3         0.2007863597E+05      0.5642207410E+05
          0                 3           3            15   23     2       0.1949103072E+00      35   25    1        -0.5577916287E+04      0.5832979268E+04
          0                 4           2            35   25     1      -0.6223613669E-02      35   25    1        -0.5029111905E+03      0.5194644143E+03

    ------------------------------------------------
       NWT REQUIRED            4 OUTER ITERATIONS 
       AND A TOTAL OF         16 INNER ITERATIONS.
    ------------------------------------------------

 NO OUTPUT CONTROL FOR STRESS PERIOD   37   TIME STEP    9
 
 SOLVING FOR HEAD 
                                                   Max.-Head-Change                         Max.-Flux-Residual
  Residual-Control   Outer-Iter.   Inner-Iter.     Column Row Layer    Maximum-Head-Change  Column Row Layer    Maximum-Flux-Residual          L2-NORM 
          0                 1           6            56   98     3      -0.4336350633E+01      56   98    3        -0.9781087437E+05      0.5015015707E+06
          0                 2           5            77   58     1      -0.1194827799E+01      61   84    1        -0.1497518107E+05      0.5533928837E+05
          0                 3           2            77   58     1       0.9818466256E-01      62   86    1         0.1641381379E+04      0.2503530961E+04
          0                 4           1            77   58     1       0.8433894838E-03      62   85    1        -0.1031731907E+02      0.1195960425E+02

    ------------------------------------------------
       NWT REQUIRED            4 OUTER ITERATIONS 
       AND A TOTAL OF         14 INNER ITERATIONS.
    ------------------------------------------------

 NO OUTPUT CONTROL FOR STRESS PERIOD   37   TIME STEP   10
 
 SOLVING FOR HEAD 
                                                   Max.-Head-Change                         Max.-Flux-Residual
  Residual-Control   Outer-Iter.   Inner-Iter.     Column Row Layer    Maximum-Head-Change  Column Row Layer    Maximum-Flux-Residual          L2-NORM 
          0                 1           6            56   98     3      -0.4021361873E+01      56   98    3        -0.9042147371E+05      0.4972946293E+06
          0                 2           5            56   98     3       0.3589680309E+00      65   45    2         0.1198359960E+05      0.5259625615E+05
          0                 3           2            56   98     2       0.2520392814E-02      15   13    1         0.2649399136E+03      0.3198636226E+03

    ------------------------------------------------
       NWT REQUIRED            3 OUTER ITERATIONS 
       AND A TOTAL OF         13 INNER ITERATIONS.
    ------------------------------------------------

 NO OUTPUT CONTROL FOR STRESS PERIOD   37   TIME STEP   11
 
 SOLVING FOR HEAD 
                                                   Max.-Head-Change                         Max.-Flux-Residual
  Residual-Control   Outer-Iter.   Inner-Iter.     Column Row Layer    Maximum-Head-Change  Column Row Layer    Maximum-Flux-Residual          L2-NORM 
          0                 1           6            56   98     3      -0.3739888040E+01      56   98    3        -0.8384534064E+05      0.4935052598E+06
          0                 2           5            24   43     2      -0.4764695292E+00      56   98    3         0.8318027889E+04      0.5125314572E+05
          0                 3           2            22   39     2      -0.5992544208E-01      22   39    2        -0.1336336344E+04      0.1404895675E+04
          0                 4           2            22   39     2      -0.5406836884E-02      22   39    2        -0.1205033294E+03      0.1206981057E+03

    ------------------------------------------------
       NWT REQUIRED            4 OUTER ITERATIONS 
       AND A TOTAL OF         15 INNER ITERATIONS.
    ------------------------------------------------

 OUTPUT CONTROL FOR STRESS PERIOD   37   TIME STEP   12
    SAVE BUDGET
 UBDSV1 SAVING "         STORAGE" ON UNIT  39 AT TIME STEP 12, STRESS PERIOD  37
 UBDSV2 SAVING "   CONSTANT HEAD" ON UNIT  39 AT TIME STEP 12, STRESS PERIOD  37
 UBDSV1 SAVING "FLOW RIGHT FACE " ON UNIT  39 AT TIME STEP 12, STRESS PERIOD  37
 UBDSV1 SAVING "FLOW FRONT FACE " ON UNIT  39 AT TIME STEP 12, STRESS PERIOD  37
 UBDSV1 SAVING "FLOW LOWER FACE " ON UNIT  39 AT TIME STEP 12, STRESS PERIOD  37
 UBDSV4 SAVING "           WELLS" ON UNIT  39 AT TIME STEP 12, STRESS PERIOD  37
 UBDSV3 SAVING "              ET" ON UNIT  39 AT TIME STEP 12, STRESS PERIOD  37
 UBDSV3 SAVING "        RECHARGE" ON UNIT  39 AT TIME STEP 12, STRESS PERIOD  37

 INTERPOLATION FOR HEAD OBS# 7531, ID 269-38-4     CHANGED BECAUSE AT LEAST ONE
 NEIGHBORING CELL REQUIRED FOR INTERPOLATION IS DRY OR INACTIVE (OBS2BAS7SE)
1
  VOLUMETRIC BUDGET FOR ENTIRE MODEL AT END OF TIME STEP   12, STRESS PERIOD  37
  ------------------------------------------------------------------------------

     CUMULATIVE VOLUMES      L**3       RATES FOR THIS TIME STEP      L**3/T
     ------------------                 ------------------------

           IN:                                      IN:
           ---                                      ---
             STORAGE =247599759360.0000               STORAGE =    25125020.0000
       CONSTANT HEAD = 20035457024.0000         CONSTANT HEAD =     2360025.2500
               WELLS = 16564267008.0000                 WELLS =     1225525.0000
                  ET =           0.0000                    ET =           0.0000
            RECHARGE =233272475648.0000              RECHARGE =    20944132.0000

            TOTAL IN =517471961088.0000              TOTAL IN =    49654704.0000

          OUT:                                     OUT:
          ----                                     ----
             STORAGE = 27135195136.0000               STORAGE =      375252.2500
       CONSTANT HEAD = 47589355520.0000         CONSTANT HEAD =     3020925.2500
               WELLS =430631288832.0000                 WELLS =    45908000.0000
                  ET = 12115373056.0000                    ET =      350536.9688
            RECHARGE =           0.0000              RECHARGE =           0.0000

           TOTAL OUT =517471207424.0000             TOTAL OUT =    49654712.0000

            IN - OUT =      753664.0000              IN - OUT =          -8.0000

 PERCENT DISCREPANCY =           0.00     PERCENT DISCREPANCY =          -0.00






         TIME SUMMARY AT END OF TIME STEP   12 IN STRESS PERIOD   37
                    SECONDS     MINUTES      HOURS       DAYS        YEARS
                    -----------------------------------------------------------
   TIME STEP LENGTH 2.63520E+06  43920.      732.00      30.500     8.35044E-02
 STRESS PERIOD TIME 3.16224E+07 5.27040E+05  8784.0      366.00      1.0021    
         TOTAL TIME 1.16770E+09 1.94616E+07 3.24361E+05  13515.      37.002    
1
1
                            STRESS PERIOD NO.   38, LENGTH =   365.0000    
                            -----------------------------------------------

                              NUMBER OF TIME STEPS =    12

                               MULTIPLIER FOR DELT =     1.000

                            INITIAL TIME STEP SIZE =   30.41667    

   1682 WELLS

 REUSING SURF FROM LAST STRESS PERIOD

 REUSING EVTR FROM LAST STRESS PERIOD

 REUSING EXDP FROM LAST STRESS PERIOD



                           RECHARGE
 READING ON UNIT   16 WITH FORMAT: (15F5.0)            


     63 TIME-VARIANT SPECIFIED-HEAD CELLS
 
 SOLVING FOR HEAD 
                                                   Max.-Head-Change                         Max.-Flux-Residual
  Residual-Control   Outer-Iter.   Inner-Iter.     Column Row Layer    Maximum-Head-Change  Column Row Layer    Maximum-Flux-Residual          L2-NORM 
          0                 1           7            62   87     3       0.6291394160E+02      62   96    3         0.4399174468E+06      0.1265914084E+07
          0                 2           5            62   87     3      -0.5599876905E+01      20   18    1        -0.5055872772E+05      0.1545353614E+06
          0                 3           3            51  103     3       0.8395841508E+00      42   33    1         0.3642056090E+04      0.6279817354E+04
          0                 4           2            61   87     3       0.8202812718E-02      44   33    2         0.1283025909E+03      0.2425255474E+03

    ------------------------------------------------
       NWT REQUIRED            4 OUTER ITERATIONS 
       AND A TOTAL OF         17 INNER ITERATIONS.
    ------------------------------------------------

 NO OUTPUT CONTROL FOR STRESS PERIOD   38   TIME STEP    1
 
 SOLVING FOR HEAD 
                                                   Max.-Head-Change                         Max.-Flux-Residual
  Residual-Control   Outer-Iter.   Inner-Iter.     Column Row Layer    Maximum-Head-Change  Column Row Layer    Maximum-Flux-Residual          L2-NORM 
          0                 1           7            62   96     3       0.1782520161E+02      62   96    3         0.3491973026E+06      0.7382397941E+06
          0                 2           5            63   96     3      -0.2088039861E+01      62   86    1        -0.7280368563E+05      0.1043306539E+06
          0                 3           3            63   96     3       0.1213105404E+01      62   86    2         0.5248926556E+05      0.5706580272E+05
          0                 4           3            63   96     3       0.1091695040E+00      62   86    2         0.4723460397E+04      0.5136605162E+04
          0                 5           2            63   96     3       0.9815170862E-02      62   86    2         0.4246520185E+03      0.4618237498E+03

    ------------------------------------------------
       NWT REQUIRED            5 OUTER ITERATIONS 
       AND A TOTAL OF         20 INNER ITERATIONS.
    ------------------------------------------------

 NO OUTPUT CONTROL FOR STRESS PERIOD   38   TIME STEP    2
 
 SOLVING FOR HEAD 
                                                   Max.-Head-Change                         Max.-Flux-Residual
  Residual-Control   Outer-Iter.   Inner-Iter.     Column Row Layer    Maximum-Head-Change  Column Row Layer    Maximum-Flux-Residual          L2-NORM 
          0                 1           7            62   96     3       0.1550143441E+02      62   96    3         0.3017897497E+06      0.6087666045E+06
          0                 2           5            63   96     3       0.3496641863E+02      63   96    3         0.9723920287E+05      0.1179275019E+06
          0                 3           3            63   96     3      -0.3492081506E+01      63   96    3        -0.1129974212E+05      0.1255155791E+05
          0                 4           2            62   96     3       0.2572363577E-02      54  108    2        -0.8393593503E+02      0.1065481211E+03

    ------------------------------------------------
       NWT REQUIRED            4 OUTER ITERATIONS 
       AND A TOTAL OF         17 INNER ITERATIONS.
    ------------------------------------------------

 NO OUTPUT CONTROL FOR STRESS PERIOD   38   TIME STEP    3
 
 SOLVING FOR HEAD 
                                                   Max.-Head-Change                         Max.-Flux-Residual
  Residual-Control   Outer-Iter.   Inner-Iter.     Column Row Layer    Maximum-Head-Change  Column Row Layer    Maximum-Flux-Residual          L2-NORM 
          0                 1           6            62   96     3       0.1512285684E+02      62   96    3         0.2884486106E+06      0.5398053969E+06
          0                 2           5            62   96     3       0.5700744528E+02      62   96    3         0.1845234229E+06      0.1950233011E+06
          0                 3           4            62   96     3      -0.4164641011E+01      62   96    3        -0.1279471609E+05      0.1408537071E+05
          0                 4           2            54  108     2       0.2088596024E-02      54  108    2         0.4796782299E+01      0.7321886485E+01

    ------------------------------------------------
       NWT REQUIRED            4 OUTER ITERATIONS 
       AND A TOTAL OF         17 INNER ITERATIONS.
    ------------------------------------------------

 NO OUTPUT CONTROL FOR STRESS PERIOD   38   TIME STEP    4
 
 SOLVING FOR HEAD 
                                                   Max.-Head-Change                         Max.-Flux-Residual
  Residual-Control   Outer-Iter.   Inner-Iter.     Column Row Layer    Maximum-Head-Change  Column Row Layer    Maximum-Flux-Residual          L2-NORM 
          0                 1           6            62   96     3       0.3113128460E+02      62   96    3         0.8451862243E+05      0.4313646121E+06
          0                 2           5            62   96     3      -0.3444273280E+01      61   84    1        -0.1899012825E+05      0.4814388867E+05
          0                 3           2            57  103     2       0.1344001248E-01      57  103    2         0.8622936277E+02      0.1077132217E+03
          0                 4           1            57  103     1       0.1536125464E-03      61   85    1         0.4788092151E+00      0.1280232635E+01

    ------------------------------------------------
       NWT REQUIRED            4 OUTER ITERATIONS 
       AND A TOTAL OF         14 INNER ITERATIONS.
    ------------------------------------------------

 NO OUTPUT CONTROL FOR STRESS PERIOD   38   TIME STEP    5
 
 SOLVING FOR HEAD 
                                                   Max.-Head-Change                         Max.-Flux-Residual
  Residual-Control   Outer-Iter.   Inner-Iter.     Column Row Layer    Maximum-Head-Change  Column Row Layer    Maximum-Flux-Residual          L2-NORM 
          0                 1           6            63   96     3       0.5755168376E+01      62   86    1         0.6200262155E+05      0.3974658876E+06
          0                 2           4            63   96     3      -0.5156252997E+00      62   94    2         0.1808065170E+05      0.4371567341E+05
          0                 3           2            62   94     2      -0.4479214166E-01      62   94    2        -0.1782447973E+04      0.1836595692E+04
          0                 4           1            85   85     2      -0.7049021847E-04      58  110    2        -0.1018167934E+01      0.2244015317E+01

    ------------------------------------------------
       NWT REQUIRED            4 OUTER ITERATIONS 
       AND A TOTAL OF         13 INNER ITERATIONS.
    ------------------------------------------------

 NO OUTPUT CONTROL FOR STRESS PERIOD   38   TIME STEP    6
 
 SOLVING FOR HEAD 
                                                   Max.-Head-Change                         Max.-Flux-Residual
  Residual-Control   Outer-Iter.   Inner-Iter.     Column Row Layer    Maximum-Head-Change  Column Row Layer    Maximum-Flux-Residual          L2-NORM 
          0                 1           6            65   96     3       0.3088589856E+01      62   86    1         0.5288220891E+05      0.3780456978E+06
          0                 2           4            77   62     1      -0.8313311173E+00      62   86    1        -0.5473687634E+04      0.3821633765E+05
          0                 3           2            77   62     1       0.6794073287E-01      61   84    2        -0.3616715467E+03      0.4415852864E+03
          0                 4           1            77   62     1       0.6517404576E-03      77   62    1         0.1651858244E+01      0.2144897359E+01

    ------------------------------------------------
       NWT REQUIRED            4 OUTER ITERATIONS 
       AND A TOTAL OF         13 INNER ITERATIONS.
    ------------------------------------------------

 NO OUTPUT CONTROL FOR STRESS PERIOD   38   TIME STEP    7
 
 SOLVING FOR HEAD 
                                                   Max.-Head-Change                         Max.-Flux-Residual
  Residual-Control   Outer-Iter.   Inner-Iter.     Column Row Layer    Maximum-Head-Change  Column Row Layer    Maximum-Flux-Residual          L2-NORM 
          0                 1           6            65   96     3       0.2056382092E+01      62   94    1         0.5987431397E+05      0.3641672610E+06
          0                 2           4            79   54     1      -0.1374654583E+01      55   39    2         0.6550806097E+04      0.3758825263E+05
          0                 3           2            79   54     1       0.9912459262E-01      79   54    1         0.1508856106E+03      0.1644630998E+03
          0                 4           2            79   54     1       0.1885781250E-02      79   54    1         0.2837460961E+01      0.3330398372E+01

    ------------------------------------------------
       NWT REQUIRED            4 OUTER ITERATIONS 
       AND A TOTAL OF         14 INNER ITERATIONS.
    ------------------------------------------------

 NO OUTPUT CONTROL FOR STRESS PERIOD   38   TIME STEP    8
 
 SOLVING FOR HEAD 
                                                   Max.-Head-Change                         Max.-Flux-Residual
  Residual-Control   Outer-Iter.   Inner-Iter.     Column Row Layer    Maximum-Head-Change  Column Row Layer    Maximum-Flux-Residual          L2-NORM 
          0                 1           6            79   54     1      -0.2558552878E+01      62   94    1         0.5393734958E+05      0.3514393070E+06
          0                 2           4            24   41     2      -0.1111050920E+01      62   94    1        -0.5624735678E+04      0.3542672522E+05
          0                 3           2            24   41     2       0.7555370085E-01      58   41    2         0.2669373985E+03      0.3624712750E+03
          0                 4           2            24   41     1       0.1715014337E-02      24   41    1         0.2102734953E+01      0.3613269871E+01

    ------------------------------------------------
       NWT REQUIRED            4 OUTER ITERATIONS 
       AND A TOTAL OF         14 INNER ITERATIONS.
    ------------------------------------------------

 NO OUTPUT CONTROL FOR STRESS PERIOD   38   TIME STEP    9
 
 SOLVING FOR HEAD 
                                                   Max.-Head-Change                         Max.-Flux-Residual
  Residual-Control   Outer-Iter.   Inner-Iter.     Column Row Layer    Maximum-Head-Change  Column Row Layer    Maximum-Flux-Residual          L2-NORM 
          0                 1           6            62   94     1       0.1319794417E+01      62   94    1         0.4861555237E+05      0.3406311202E+06
          0                 2           4            62   94     1      -0.1230266122E+00      58   41    2         0.6436607632E+04      0.3478127894E+05
          0                 3           2            24   41     1       0.1245152070E-02      35   26    1        -0.2336464240E+02      0.3879896990E+02

    ------------------------------------------------
       NWT REQUIRED            3 OUTER ITERATIONS 
       AND A TOTAL OF         12 INNER ITERATIONS.
    ------------------------------------------------

 NO OUTPUT CONTROL FOR STRESS PERIOD   38   TIME STEP   10
 
 SOLVING FOR HEAD 
                                                   Max.-Head-Change                         Max.-Flux-Residual
  Residual-Control   Outer-Iter.   Inner-Iter.     Column Row Layer    Maximum-Head-Change  Column Row Layer    Maximum-Flux-Residual          L2-NORM 
          0                 1           6            62   94     1       0.1192845413E+01      62   94    1         0.4387692502E+05      0.3314833527E+06
          0                 2           4            82   61     1      -0.1694331591E+01      62   94    1        -0.4525402518E+04      0.3331643881E+05
          0                 3           2            82   61     1       0.1004371910E+00      20   18    1         0.2573855518E+03      0.3254759909E+03
          0                 4           2            82   61     1       0.3160800923E-02      61   93    1         0.5614487767E+01      0.7537754263E+01

    ------------------------------------------------
       NWT REQUIRED            4 OUTER ITERATIONS 
       AND A TOTAL OF         14 INNER ITERATIONS.
    ------------------------------------------------

 NO OUTPUT CONTROL FOR STRESS PERIOD   38   TIME STEP   11
 
 SOLVING FOR HEAD 
                                                   Max.-Head-Change                         Max.-Flux-Residual
  Residual-Control   Outer-Iter.   Inner-Iter.     Column Row Layer    Maximum-Head-Change  Column Row Layer    Maximum-Flux-Residual          L2-NORM 
          0                 1           6            82   61     1      -0.3054728841E+01      62   94    1         0.3967153350E+05      0.3237135882E+06
          0                 2           4            64  109     1      -0.5047560815E+00      62   94    1        -0.4074106471E+04      0.3255055669E+05
          0                 3           2            64  109     1       0.4286978953E-01      64  109    1         0.1748624278E+03      0.2149115888E+03
          0                 4           1            64  109     1       0.2523800567E-03      35   26    1        -0.1762967482E+01      0.2569007564E+01

    ------------------------------------------------
       NWT REQUIRED            4 OUTER ITERATIONS 
       AND A TOTAL OF         13 INNER ITERATIONS.
    ------------------------------------------------

 OUTPUT CONTROL FOR STRESS PERIOD   38   TIME STEP   12
    SAVE BUDGET
 UBDSV1 SAVING "         STORAGE" ON UNIT  39 AT TIME STEP 12, STRESS PERIOD  38
 UBDSV2 SAVING "   CONSTANT HEAD" ON UNIT  39 AT TIME STEP 12, STRESS PERIOD  38
 UBDSV1 SAVING "FLOW RIGHT FACE " ON UNIT  39 AT TIME STEP 12, STRESS PERIOD  38
 UBDSV1 SAVING "FLOW FRONT FACE " ON UNIT  39 AT TIME STEP 12, STRESS PERIOD  38
 UBDSV1 SAVING "FLOW LOWER FACE " ON UNIT  39 AT TIME STEP 12, STRESS PERIOD  38
 UBDSV4 SAVING "           WELLS" ON UNIT  39 AT TIME STEP 12, STRESS PERIOD  38
 UBDSV3 SAVING "              ET" ON UNIT  39 AT TIME STEP 12, STRESS PERIOD  38
 UBDSV3 SAVING "        RECHARGE" ON UNIT  39 AT TIME STEP 12, STRESS PERIOD  38
1
  VOLUMETRIC BUDGET FOR ENTIRE MODEL AT END OF TIME STEP   12, STRESS PERIOD  38
  ------------------------------------------------------------------------------

     CUMULATIVE VOLUMES      L**3       RATES FOR THIS TIME STEP      L**3/T
     ------------------                 ------------------------

           IN:                                      IN:
           ---                                      ---
             STORAGE =253833068544.0000               STORAGE =    15650303.0000
       CONSTANT HEAD = 20852936704.0000         CONSTANT HEAD =     2188321.7500
               WELLS = 17011587072.0000                 WELLS =     1225525.0000
                  ET =           0.0000                    ET =           0.0000
            RECHARGE =243659866112.0000              RECHARGE =    28458762.0000

            TOTAL IN =535357489152.0000              TOTAL IN =    47522912.0000

          OUT:                                     OUT:
          ----                                     ----
             STORAGE = 28508321792.0000               STORAGE =     2243602.5000
       CONSTANT HEAD = 48714059776.0000         CONSTANT HEAD =     3094235.5000
               WELLS =445872832512.0000                 WELLS =    41757124.0000
                  ET = 12261526528.0000                    ET =      427936.4688
            RECHARGE =           0.0000              RECHARGE =           0.0000

           TOTAL OUT =535356735488.0000             TOTAL OUT =    47522900.0000

            IN - OUT =      753664.0000              IN - OUT =          12.0000

 PERCENT DISCREPANCY =           0.00     PERCENT DISCREPANCY =           0.00






         TIME SUMMARY AT END OF TIME STEP   12 IN STRESS PERIOD   38
                    SECONDS     MINUTES      HOURS       DAYS        YEARS
                    -----------------------------------------------------------
   TIME STEP LENGTH 2.62800E+06  43800.      730.00      30.417     8.32763E-02
 STRESS PERIOD TIME 3.15360E+07 5.25600E+05  8760.0      365.00     0.99932    
         TOTAL TIME 1.19923E+09 1.99872E+07 3.33121E+05  13880.      38.001    
1
1
                            STRESS PERIOD NO.   39, LENGTH =   365.0000    
                            -----------------------------------------------

                              NUMBER OF TIME STEPS =    12

                               MULTIPLIER FOR DELT =     1.000

                            INITIAL TIME STEP SIZE =   30.41667    

   1607 WELLS

 REUSING SURF FROM LAST STRESS PERIOD

 REUSING EVTR FROM LAST STRESS PERIOD

 REUSING EXDP FROM LAST STRESS PERIOD



                           RECHARGE
 READING ON UNIT   16 WITH FORMAT: (15F5.0)            


     63 TIME-VARIANT SPECIFIED-HEAD CELLS
 
 SOLVING FOR HEAD 
                                                   Max.-Head-Change                         Max.-Flux-Residual
  Residual-Control   Outer-Iter.   Inner-Iter.     Column Row Layer    Maximum-Head-Change  Column Row Layer    Maximum-Flux-Residual          L2-NORM 
          0                 1           7            19   38     2       0.3924105804E+02      58  102    3         0.3486367292E+06      0.1285218003E+07
          0                 2           5            66  101     1      -0.1205896568E+02      66  101    1        -0.3236083981E+06      0.4288672322E+06
          0                 3           3            60   87     3      -0.7931255796E+00      60   87    3        -0.1022226235E+05      0.1236803817E+05
          0                 4           2            92   77     2      -0.5457223806E-02      59   87    3        -0.7669244436E+02      0.8565556810E+02

    ------------------------------------------------
       NWT REQUIRED            4 OUTER ITERATIONS 
       AND A TOTAL OF         17 INNER ITERATIONS.
    ------------------------------------------------

 NO OUTPUT CONTROL FOR STRESS PERIOD   39   TIME STEP    1
 
 SOLVING FOR HEAD 
                                                   Max.-Head-Change                         Max.-Flux-Residual
  Residual-Control   Outer-Iter.   Inner-Iter.     Column Row Layer    Maximum-Head-Change  Column Row Layer    Maximum-Flux-Residual          L2-NORM 
          0                 1           6            60   87     3       0.8132762025E+01      56  100    3        -0.1695529242E+06      0.7254740930E+06
          0                 2           4            60   87     3      -0.7424209294E+00      56  100    3         0.1684670756E+05      0.7363182241E+05
          0                 3           2            71   20     2       0.1773829924E-01      60   97    1        -0.9450225122E+03      0.1153780051E+04
          0                 4           2            60   97     1      -0.1272602766E-02      84   83    3        -0.5671489747E+03      0.5736658402E+03

    ------------------------------------------------
       NWT REQUIRED            4 OUTER ITERATIONS 
       AND A TOTAL OF         14 INNER ITERATIONS.
    ------------------------------------------------

 NO OUTPUT CONTROL FOR STRESS PERIOD   39   TIME STEP    2
 
 SOLVING FOR HEAD 
                                                   Max.-Head-Change                         Max.-Flux-Residual
  Residual-Control   Outer-Iter.   Inner-Iter.     Column Row Layer    Maximum-Head-Change  Column Row Layer    Maximum-Flux-Residual          L2-NORM 
          0                 1           6            56   98     3      -0.5975822999E+01      56   98    3        -0.1388250371E+06      0.6003550151E+06
          0                 2           4            58   72     1      -0.7230822560E+00      58   72    1        -0.3267839170E+05      0.6878830151E+05
          0                 3           3            58   72     2       0.2219729882E+00      58   72    2         0.1680807229E+05      0.1684186746E+05
          0                 4           2            58   72     2       0.1996124116E-01      58   72    2         0.1515992716E+04      0.1821350700E+04
          0                 5           2            58   72     2       0.1801721958E-02      84   83    3        -0.1005375190E+04      0.1014651672E+04
          0                 6           1            58   72     2       0.1607478704E-03      84   83    3        -0.1004730118E+04      0.1004805999E+04
          0                 7           1            84   83     3      -0.2511506699E-04      84   83    3        -0.1004076803E+04      0.1004077660E+04
          0                 8           1            84   83     3      -0.2509868372E-04      84   83    3        -0.1003426234E+04      0.1003426387E+04
          0                 9           1            84   83     3      -0.2508221340E-04      84   83    3        -0.1002771308E+04      0.1002771453E+04
          0                10           1            84   83     3      -0.2506567006E-04      84   83    3        -0.1002112847E+04      0.1002112991E+04
                                                   Max.-Head-Change                         Max.-Flux-Residual
  Residual-Control   Outer-Iter.   Inner-Iter.     Column Row Layer    Maximum-Head-Change  Column Row Layer    Maximum-Flux-Residual          L2-NORM 
          0                11           1            84   83     3      -0.2504904618E-04      84   83    3        -0.1001451517E+04      0.1001451661E+04
          0                12           1            84   83     3      -0.2503234176E-04      84   83    3        -0.1000787024E+04      0.1000787169E+04
          0                13           1            84   83     3      -0.2501555681E-04      84   83    3        -0.1000119313E+04      0.1000119457E+04
          0                14           1            84   83     3      -0.2499869182E-04      84   83    3        -0.9994483824E+03      0.9994485265E+03
          0                15           1            84   83     3      -0.2498174630E-04      84   83    3        -0.9987742393E+03      0.9987743833E+03
          0                16           1            84   83     3      -0.2496472074E-04      84   83    3        -0.9980968933E+03      0.9980970372E+03
          0                17           1            84   83     3      -0.2494761565E-04      84   83    3        -0.9974163537E+03      0.9974164975E+03
          0                18           1            84   83     3      -0.2493043102E-04      84   83    3        -0.9967326304E+03      0.9967327741E+03
          0                19           1            84   83     3      -0.2491316735E-04      84   83    3        -0.9960457328E+03      0.9960458765E+03
          0                20           1            84   83     3      -0.2489582465E-04      84   83    3        -0.9953556709E+03      0.9953558145E+03
                                                   Max.-Head-Change                         Max.-Flux-Residual
  Residual-Control   Outer-Iter.   Inner-Iter.     Column Row Layer    Maximum-Head-Change  Column Row Layer    Maximum-Flux-Residual          L2-NORM 
          0                21           1            84   83     3      -0.2487840342E-04      84   83    3        -0.9946624544E+03      0.9946625979E+03
          0                22           1            84   83     3      -0.2486090315E-04      84   83    3        -0.9939660930E+03      0.9939662364E+03
          0                23           1            84   83     3      -0.2484332484E-04      84   83    3        -0.9932665967E+03      0.9932667399E+03
          0                24           1            84   83     3      -0.2482566850E-04      84   83    3        -0.9925639752E+03      0.9925641184E+03
          0                25           1            84   83     3      -0.2480793463E-04      84   83    3        -0.9918582385E+03      0.9918583816E+03
          0                26           1            84   83     3      -0.2479012322E-04      84   83    3        -0.9911493966E+03      0.9911495395E+03
          0                27           1            84   83     3      -0.2477223428E-04      84   83    3        -0.9904374593E+03      0.9904376022E+03
          0                28           1            84   83     3      -0.2475426880E-04      84   83    3        -0.9897224367E+03      0.9897225795E+03
          0                29           1            84   83     3      -0.2473622629E-04      84   83    3        -0.9890043388E+03      0.9890044815E+03
          0                30           3            84   83     3      -0.3719787465E-01      84   83    3        -0.9882831775E+03      0.9882833201E+03
          0                31           2            84   83     3       0.3378641577E-02      84   83    3         0.1268505647E+03      0.1376707991E+03

    ------------------------------------------------
       NWT REQUIRED           31 OUTER ITERATIONS 
       AND A TOTAL OF         46 INNER ITERATIONS.
    ------------------------------------------------

 NO OUTPUT CONTROL FOR STRESS PERIOD   39   TIME STEP    3
 
 SOLVING FOR HEAD 
                                                   Max.-Head-Change                         Max.-Flux-Residual
  Residual-Control   Outer-Iter.   Inner-Iter.     Column Row Layer    Maximum-Head-Change  Column Row Layer    Maximum-Flux-Residual          L2-NORM 
          0                 1           6            56   98     3      -0.5398342505E+01      56   98    3        -0.1249546342E+06      0.5307136220E+06
          0                 2           4            75   59     1      -0.7331017024E+00      58  101    2        -0.2538600606E+05      0.5959642435E+05
          0                 3           2            75   59     1       0.6287157321E-01      58   72    2        -0.8857776824E+03      0.9382422888E+03
          0                 4           1            75   59     1       0.3175516748E-03      35   26    1         0.2779228672E+01      0.3980936889E+01

    ------------------------------------------------
       NWT REQUIRED            4 OUTER ITERATIONS 
       AND A TOTAL OF         13 INNER ITERATIONS.
    ------------------------------------------------

 NO OUTPUT CONTROL FOR STRESS PERIOD   39   TIME STEP    4
 
 SOLVING FOR HEAD 
                                                   Max.-Head-Change                         Max.-Flux-Residual
  Residual-Control   Outer-Iter.   Inner-Iter.     Column Row Layer    Maximum-Head-Change  Column Row Layer    Maximum-Flux-Residual          L2-NORM 
          0                 1           6            56   98     3      -0.4891594353E+01      81   46    1         0.1141288794E+06      0.4848066553E+06
          0                 2           4            80   69     1      -0.5157095495E+00      81   46    1        -0.1143830202E+05      0.4954281817E+05
          0                 3           2            80   69     1       0.4279526515E-01      58  101    3        -0.3333466905E+03      0.3988306366E+03
          0                 4           1            80   69     1       0.3330753986E-03      35   26    1         0.1446111128E+01      0.2561658745E+01

    ------------------------------------------------
       NWT REQUIRED            4 OUTER ITERATIONS 
       AND A TOTAL OF         13 INNER ITERATIONS.
    ------------------------------------------------

 NO OUTPUT CONTROL FOR STRESS PERIOD   39   TIME STEP    5
 
 SOLVING FOR HEAD 
                                                   Max.-Head-Change                         Max.-Flux-Residual
  Residual-Control   Outer-Iter.   Inner-Iter.     Column Row Layer    Maximum-Head-Change  Column Row Layer    Maximum-Flux-Residual          L2-NORM 
          0                 1           6            56   98     3      -0.4444481647E+01      81   46    1         0.1104854709E+06      0.4512850079E+06
          0                 2           4            56   98     3       0.3969573866E+00      81   46    1        -0.1107232057E+05      0.4629870268E+05
          0                 3           2            56   98     2       0.2838279973E-02      56   98    2         0.9512159146E+01      0.3203808494E+02

    ------------------------------------------------
       NWT REQUIRED            3 OUTER ITERATIONS 
       AND A TOTAL OF         12 INNER ITERATIONS.
    ------------------------------------------------

 NO OUTPUT CONTROL FOR STRESS PERIOD   39   TIME STEP    6

 INTERPOLATION FOR HEAD OBS# 7660, ID 191-39-212   CHANGED BECAUSE AT LEAST ONE
 NEIGHBORING CELL REQUIRED FOR INTERPOLATION IS DRY OR INACTIVE (OBS2BAS7SE)
 
 SOLVING FOR HEAD 
                                                   Max.-Head-Change                         Max.-Flux-Residual
  Residual-Control   Outer-Iter.   Inner-Iter.     Column Row Layer    Maximum-Head-Change  Column Row Layer    Maximum-Flux-Residual          L2-NORM 
          0                 1           6            56   98     3      -0.4048173777E+01      81   46    1         0.1069322159E+06      0.4248943854E+06
          0                 2           4            56   98     3       0.4557024045E+00      56   98    3         0.1214051522E+05      0.4444489767E+05
          0                 3           2            59  101     2      -0.1558246103E-01      59  101    2        -0.6046510654E+03      0.6893463706E+03
          0                 4           1            24   46     1      -0.1393029559E-03      31   17    3        -0.3962895125E+00      0.1941093409E+01

    ------------------------------------------------
       NWT REQUIRED            4 OUTER ITERATIONS 
       AND A TOTAL OF         13 INNER ITERATIONS.
    ------------------------------------------------

 NO OUTPUT CONTROL FOR STRESS PERIOD   39   TIME STEP    7
 
 SOLVING FOR HEAD 
                                                   Max.-Head-Change                         Max.-Flux-Residual
  Residual-Control   Outer-Iter.   Inner-Iter.     Column Row Layer    Maximum-Head-Change  Column Row Layer    Maximum-Flux-Residual          L2-NORM 
          0                 1           6            81   45     1       0.3505249345E+01      81   46    1         0.1034707781E+06      0.4024384384E+06
          0                 2           4            81   45     1      -0.3191082790E+00      81   46    1        -0.1036782448E+05      0.4128515685E+05
          0                 3           2            75   55     1       0.6692113202E-02      35   25    2         0.1555044638E+03      0.1628702193E+03

    ------------------------------------------------
       NWT REQUIRED            3 OUTER ITERATIONS 
       AND A TOTAL OF         12 INNER ITERATIONS.
    ------------------------------------------------

 NO OUTPUT CONTROL FOR STRESS PERIOD   39   TIME STEP    8
 
 SOLVING FOR HEAD 
                                                   Max.-Head-Change                         Max.-Flux-Residual
  Residual-Control   Outer-Iter.   Inner-Iter.     Column Row Layer    Maximum-Head-Change  Column Row Layer    Maximum-Flux-Residual          L2-NORM 
          0                 1           6            81   45     1       0.3375029819E+01      81   46    1         0.1001024415E+06      0.3837492443E+06
          0                 2           4            79   55     1      -0.3986401402E+01      19   72    2        -0.1030838604E+05      0.4093349614E+05
          0                 3           2            79   55     1       0.2519462580E+00      35   25    2        -0.6724462720E+03      0.8942621271E+03
          0                 4           2            79   55     1       0.6947843454E-02      79   55    1         0.7070168479E+01      0.7338936638E+01

    ------------------------------------------------
       NWT REQUIRED            4 OUTER ITERATIONS 
       AND A TOTAL OF         14 INNER ITERATIONS.
    ------------------------------------------------

 NO OUTPUT CONTROL FOR STRESS PERIOD   39   TIME STEP    9
 
 SOLVING FOR HEAD 
                                                   Max.-Head-Change                         Max.-Flux-Residual
  Residual-Control   Outer-Iter.   Inner-Iter.     Column Row Layer    Maximum-Head-Change  Column Row Layer    Maximum-Flux-Residual          L2-NORM 
          0                 1           6            81   45     1       0.3250586431E+01      81   46    1         0.9682791989E+05      0.3677710759E+06
          0                 2           4            81   45     1      -0.2958306583E+00      81   46    1        -0.9700837846E+04      0.3676728792E+05
          0                 3           2            56   98     2       0.1734220959E-02      15   39    3        -0.1011468898E+02      0.2554921102E+02

    ------------------------------------------------
       NWT REQUIRED            3 OUTER ITERATIONS 
       AND A TOTAL OF         12 INNER ITERATIONS.
    ------------------------------------------------

 NO OUTPUT CONTROL FOR STRESS PERIOD   39   TIME STEP   10
 
 SOLVING FOR HEAD 
                                                   Max.-Head-Change                         Max.-Flux-Residual
  Residual-Control   Outer-Iter.   Inner-Iter.     Column Row Layer    Maximum-Head-Change  Column Row Layer    Maximum-Flux-Residual          L2-NORM 
          0                 1           6            81   45     1       0.3131849038E+01      81   46    1         0.9365483114E+05      0.3538797695E+06
          0                 2           4            81   45     1      -0.2850363839E+00      81   46    1        -0.9382118162E+04      0.3541158612E+05
          0                 3           2            56   98     2       0.1531448659E-02      19   34    2        -0.1691683522E+02      0.2877144720E+02

    ------------------------------------------------
       NWT REQUIRED            3 OUTER ITERATIONS 
       AND A TOTAL OF         12 INNER ITERATIONS.
    ------------------------------------------------

 NO OUTPUT CONTROL FOR STRESS PERIOD   39   TIME STEP   11
 
 SOLVING FOR HEAD 
                                                   Max.-Head-Change                         Max.-Flux-Residual
  Residual-Control   Outer-Iter.   Inner-Iter.     Column Row Layer    Maximum-Head-Change  Column Row Layer    Maximum-Flux-Residual          L2-NORM 
          0                 1           6            81   45     1       0.3018455349E+01      81   46    1         0.9059027496E+05      0.3416970444E+06
          0                 2           4            80   45     1      -0.3663782510E+00      80   45    1        -0.1140302733E+05      0.3642745355E+05
          0                 3           2            73   98     2       0.2366226941E-02      21   18    2        -0.9355484881E+01      0.2513578128E+02

    ------------------------------------------------
       NWT REQUIRED            3 OUTER ITERATIONS 
       AND A TOTAL OF         12 INNER ITERATIONS.
    ------------------------------------------------

 OUTPUT CONTROL FOR STRESS PERIOD   39   TIME STEP   12
    SAVE BUDGET
 UBDSV1 SAVING "         STORAGE" ON UNIT  39 AT TIME STEP 12, STRESS PERIOD  39
 UBDSV2 SAVING "   CONSTANT HEAD" ON UNIT  39 AT TIME STEP 12, STRESS PERIOD  39
 UBDSV1 SAVING "FLOW RIGHT FACE " ON UNIT  39 AT TIME STEP 12, STRESS PERIOD  39
 UBDSV1 SAVING "FLOW FRONT FACE " ON UNIT  39 AT TIME STEP 12, STRESS PERIOD  39
 UBDSV1 SAVING "FLOW LOWER FACE " ON UNIT  39 AT TIME STEP 12, STRESS PERIOD  39
 UBDSV4 SAVING "           WELLS" ON UNIT  39 AT TIME STEP 12, STRESS PERIOD  39
 UBDSV3 SAVING "              ET" ON UNIT  39 AT TIME STEP 12, STRESS PERIOD  39
 UBDSV3 SAVING "        RECHARGE" ON UNIT  39 AT TIME STEP 12, STRESS PERIOD  39
1
  VOLUMETRIC BUDGET FOR ENTIRE MODEL AT END OF TIME STEP   12, STRESS PERIOD  39
  ------------------------------------------------------------------------------

     CUMULATIVE VOLUMES      L**3       RATES FOR THIS TIME STEP      L**3/T
     ------------------                 ------------------------

           IN:                                      IN:
           ---                                      ---
             STORAGE =257859125248.0000               STORAGE =     9378897.0000
       CONSTANT HEAD = 21618540544.0000         CONSTANT HEAD =     2064896.3750
               WELLS = 17458898944.0000                 WELLS =     1225525.0000
                  ET =           0.0000                    ET =           0.0000
            RECHARGE =256320438272.0000              RECHARGE =    34686304.0000

            TOTAL IN =553257009152.0000              TOTAL IN =    47355620.0000

          OUT:                                     OUT:
          ----                                     ----
             STORAGE = 31569426432.0000               STORAGE =     6496622.5000
       CONSTANT HEAD = 49886801920.0000         CONSTANT HEAD =     3263489.0000
               WELLS =459284414464.0000                 WELLS =    36744220.0000
                  ET = 12515664896.0000                    ET =      851306.2500
            RECHARGE =           0.0000              RECHARGE =           0.0000

           TOTAL OUT =553256288256.0000             TOTAL OUT =    47355640.0000

            IN - OUT =      720896.0000              IN - OUT =         -20.0000

 PERCENT DISCREPANCY =           0.00     PERCENT DISCREPANCY =          -0.00






         TIME SUMMARY AT END OF TIME STEP   12 IN STRESS PERIOD   39
                    SECONDS     MINUTES      HOURS       DAYS        YEARS
                    -----------------------------------------------------------
   TIME STEP LENGTH 2.62800E+06  43800.      730.00      30.417     8.32763E-02
 STRESS PERIOD TIME 3.15360E+07 5.25600E+05  8760.0      365.00     0.99932    
         TOTAL TIME 1.23077E+09 2.05129E+07 3.41881E+05  14245.      39.001    
1
1
                            STRESS PERIOD NO.   40, LENGTH =   365.0000    
                            -----------------------------------------------

                              NUMBER OF TIME STEPS =    12

                               MULTIPLIER FOR DELT =     1.000

                            INITIAL TIME STEP SIZE =   30.41667    

   1595 WELLS

 REUSING SURF FROM LAST STRESS PERIOD

 REUSING EVTR FROM LAST STRESS PERIOD

 REUSING EXDP FROM LAST STRESS PERIOD



                           RECHARGE
 READING ON UNIT   16 WITH FORMAT: (15F5.0)            


     63 TIME-VARIANT SPECIFIED-HEAD CELLS
 
 SOLVING FOR HEAD 
                                                   Max.-Head-Change                         Max.-Flux-Residual
  Residual-Control   Outer-Iter.   Inner-Iter.     Column Row Layer    Maximum-Head-Change  Column Row Layer    Maximum-Flux-Residual          L2-NORM 
          0                 1           7            62   96     3      -0.7327846449E+02      62   85    3        -0.3688418495E+06      0.1214432739E+07
          0                 2           5            60   86     3       0.1000469032E+02      58  101    3         0.1017692936E+06      0.1889357493E+06
          0                 3           3            60   86     3      -0.1330359163E+01      60   86    3        -0.1638510562E+05      0.1773221527E+05
          0                 4           2            60   85     3      -0.1174599029E-01      59   86    3        -0.1502880008E+03      0.2554182440E+03
          0                 5           2            60   85     3      -0.1064707817E-02      60   85    3        -0.1187738131E+02      0.1819979677E+02

    ------------------------------------------------
       NWT REQUIRED            5 OUTER ITERATIONS 
       AND A TOTAL OF         19 INNER ITERATIONS.
    ------------------------------------------------

 NO OUTPUT CONTROL FOR STRESS PERIOD   40   TIME STEP    1
 
 SOLVING FOR HEAD 
                                                   Max.-Head-Change                         Max.-Flux-Residual
  Residual-Control   Outer-Iter.   Inner-Iter.     Column Row Layer    Maximum-Head-Change  Column Row Layer    Maximum-Flux-Residual          L2-NORM 
          0                 1           6            54  108     2      -0.1296700329E+02      56   99    3        -0.1308426824E+06      0.6135759275E+06
          0                 2           4            54  108     2       0.9548228025E+00      60   62    1        -0.2011595820E+05      0.6611969211E+05
          0                 3           2            21   19     1      -0.2674596194E-01      21   19    1        -0.2843918691E+04      0.2846450195E+04
          0                 4           4            21   19     1      -0.2412910343E-02      21   19    1        -0.2563765838E+03      0.2566853654E+03

    ------------------------------------------------
       NWT REQUIRED            4 OUTER ITERATIONS 
       AND A TOTAL OF         16 INNER ITERATIONS.
    ------------------------------------------------

 NO OUTPUT CONTROL FOR STRESS PERIOD   40   TIME STEP    2
 
 SOLVING FOR HEAD 
                                                   Max.-Head-Change                         Max.-Flux-Residual
  Residual-Control   Outer-Iter.   Inner-Iter.     Column Row Layer    Maximum-Head-Change  Column Row Layer    Maximum-Flux-Residual          L2-NORM 
          0                 1           6            56   99     3      -0.4766054049E+01      54  108    3        -0.1155244862E+06      0.4851393772E+06
          0                 2           4            56   99     3       0.4253842177E+00      21   19    1        -0.1193234927E+05      0.5048817211E+05
          0                 3           2            21   19     1       0.1969018688E-01      21   19    1         0.1183645510E+04      0.1287070955E+04
          0                 4           1            85   85     2      -0.7595084486E-04      25   54    3         0.1980237097E+01      0.2671846480E+01

    ------------------------------------------------
       NWT REQUIRED            4 OUTER ITERATIONS 
       AND A TOTAL OF         13 INNER ITERATIONS.
    ------------------------------------------------

 NO OUTPUT CONTROL FOR STRESS PERIOD   40   TIME STEP    3
 
 SOLVING FOR HEAD 
                                                   Max.-Head-Change                         Max.-Flux-Residual
  Residual-Control   Outer-Iter.   Inner-Iter.     Column Row Layer    Maximum-Head-Change  Column Row Layer    Maximum-Flux-Residual          L2-NORM 
          0                 1           6            56   99     3      -0.4149018360E+01      56   99    3        -0.9966822150E+05      0.4166379370E+06
          0                 2           4            58  101     2      -0.2416251723E+01      58  101    2        -0.1455505989E+05      0.4403641010E+05
          0                 3           3            58  101     2       0.1951450826E+00      58  101    2         0.1374515013E+04      0.1424848303E+04
          0                 4           2            58  101     1       0.2070323480E-02      58  101    2         0.6286516950E+01      0.9759526412E+01

    ------------------------------------------------
       NWT REQUIRED            4 OUTER ITERATIONS 
       AND A TOTAL OF         15 INNER ITERATIONS.
    ------------------------------------------------

 NO OUTPUT CONTROL FOR STRESS PERIOD   40   TIME STEP    4
 
 SOLVING FOR HEAD 
                                                   Max.-Head-Change                         Max.-Flux-Residual
  Residual-Control   Outer-Iter.   Inner-Iter.     Column Row Layer    Maximum-Head-Change  Column Row Layer    Maximum-Flux-Residual          L2-NORM 
          0                 1           6            56   99     3      -0.3638771610E+01      56   99    3        -0.8676904770E+05      0.3747514613E+06
          0                 2           4            58  101     2       0.4381152937E+00      56   99    3         0.8613005611E+04      0.3883976599E+05
          0                 3           2            56   74     1       0.2151134459E-01      61   60    2         0.8650236494E+03      0.9005775705E+03
          0                 4           2            61   60     2       0.1026474281E-02      61   60    2         0.7847522475E+02      0.7850958524E+02

    ------------------------------------------------
       NWT REQUIRED            4 OUTER ITERATIONS 
       AND A TOTAL OF         14 INNER ITERATIONS.
    ------------------------------------------------

 NO OUTPUT CONTROL FOR STRESS PERIOD   40   TIME STEP    5
 
 SOLVING FOR HEAD 
                                                   Max.-Head-Change                         Max.-Flux-Residual
  Residual-Control   Outer-Iter.   Inner-Iter.     Column Row Layer    Maximum-Head-Change  Column Row Layer    Maximum-Flux-Residual          L2-NORM 
          0                 1           6            56   99     3      -0.3209498518E+01      56   99    3        -0.7607357152E+05      0.3466169077E+06
          0                 2           4            56   99     3       0.2871854345E+00      56   99    3         0.7559026441E+04      0.3504342534E+05
          0                 3           2            61   60     2      -0.7517628020E-02      61   60    2        -0.3606316186E+03      0.3956729268E+03

    ------------------------------------------------
       NWT REQUIRED            3 OUTER ITERATIONS 
       AND A TOTAL OF         12 INNER ITERATIONS.
    ------------------------------------------------

 NO OUTPUT CONTROL FOR STRESS PERIOD   40   TIME STEP    6
 
 SOLVING FOR HEAD 
                                                   Max.-Head-Change                         Max.-Flux-Residual
  Residual-Control   Outer-Iter.   Inner-Iter.     Column Row Layer    Maximum-Head-Change  Column Row Layer    Maximum-Flux-Residual          L2-NORM 
          0                 1           6            56   99     3      -0.2845290170E+01      56   99    3        -0.6709363523E+05      0.3264043109E+06
          0                 2           4            56   99     3       0.2547539555E+00      13   12    2         0.1053033020E+05      0.3517996638E+05
          0                 3           2            79   53     1       0.1780761004E-01      79   53    1         0.5706527116E+02      0.7325903263E+02
          0                 4           1            79   53     1       0.2375793357E-03      79   53    1         0.7597094188E+00      0.1156357826E+01

    ------------------------------------------------
       NWT REQUIRED            4 OUTER ITERATIONS 
       AND A TOTAL OF         13 INNER ITERATIONS.
    ------------------------------------------------

 NO OUTPUT CONTROL FOR STRESS PERIOD   40   TIME STEP    7
 
 SOLVING FOR HEAD 
                                                   Max.-Head-Change                         Max.-Flux-Residual
  Residual-Control   Outer-Iter.   Inner-Iter.     Column Row Layer    Maximum-Head-Change  Column Row Layer    Maximum-Flux-Residual          L2-NORM 
          0                 1           6            56   99     3      -0.2533569455E+01      56   99    3        -0.5947470584E+05      0.3111740447E+06
          0                 2           4            56   99     3       0.2269628473E+00      15   13    1        -0.5990338564E+04      0.3165576287E+05
          0                 3           2            15   13     1       0.6438815389E-02      15   13    1         0.5941284085E+03      0.6294558967E+03

    ------------------------------------------------
       NWT REQUIRED            3 OUTER ITERATIONS 
       AND A TOTAL OF         12 INNER ITERATIONS.
    ------------------------------------------------

 NO OUTPUT CONTROL FOR STRESS PERIOD   40   TIME STEP    8
 
 SOLVING FOR HEAD 
                                                   Max.-Head-Change                         Max.-Flux-Residual
  Residual-Control   Outer-Iter.   Inner-Iter.     Column Row Layer    Maximum-Head-Change  Column Row Layer    Maximum-Flux-Residual          L2-NORM 
          0                 1           6            56   99     3      -0.2264896996E+01      56   99    3        -0.5295486890E+05      0.2994643068E+06
          0                 2           4            56   99     3       0.2029844357E+00      56   99    3         0.5273723216E+04      0.2997326771E+05
          0                 3           2            33   30     2       0.2391343827E-02      33   30    2         0.1393200186E+03      0.1509833390E+03

    ------------------------------------------------
       NWT REQUIRED            3 OUTER ITERATIONS 
       AND A TOTAL OF         12 INNER ITERATIONS.
    ------------------------------------------------

 NO OUTPUT CONTROL FOR STRESS PERIOD   40   TIME STEP    9
 
 SOLVING FOR HEAD 
                                                   Max.-Head-Change                         Max.-Flux-Residual
  Residual-Control   Outer-Iter.   Inner-Iter.     Column Row Layer    Maximum-Head-Change  Column Row Layer    Maximum-Flux-Residual          L2-NORM 
          0                 1           6            56   99     3      -0.2031986654E+01      56   99    3        -0.4733618577E+05      0.2899637108E+06
          0                 2           4            56   99     3       0.1821786877E+00      56   99    3         0.4716741535E+04      0.2920517603E+05
          0                 3           2            33   30     2      -0.3641354060E-02      20   18    2        -0.1731211681E+03      0.2866340687E+03

    ------------------------------------------------
       NWT REQUIRED            3 OUTER ITERATIONS 
       AND A TOTAL OF         12 INNER ITERATIONS.
    ------------------------------------------------

 NO OUTPUT CONTROL FOR STRESS PERIOD   40   TIME STEP   10
 
 SOLVING FOR HEAD 
                                                   Max.-Head-Change                         Max.-Flux-Residual
  Residual-Control   Outer-Iter.   Inner-Iter.     Column Row Layer    Maximum-Head-Change  Column Row Layer    Maximum-Flux-Residual          L2-NORM 
          0                 1           6            56   99     3      -0.1829094700E+01      56   99    3        -0.4246598867E+05      0.2821094542E+06
          0                 2           4            54  107     2      -0.5895004429E+00      59  101    2         0.8764036905E+04      0.2966713465E+05
          0                 3           2            54  107     2       0.4395527533E-01      54  107    3        -0.1154889543E+03      0.1582813364E+03
          0                 4           1            54  107     2       0.7390325715E-03      54  107    3        -0.1836745102E+01      0.2688605707E+01

    ------------------------------------------------
       NWT REQUIRED            4 OUTER ITERATIONS 
       AND A TOTAL OF         13 INNER ITERATIONS.
    ------------------------------------------------

 NO OUTPUT CONTROL FOR STRESS PERIOD   40   TIME STEP   11
 
 SOLVING FOR HEAD 
                                                   Max.-Head-Change                         Max.-Flux-Residual
  Residual-Control   Outer-Iter.   Inner-Iter.     Column Row Layer    Maximum-Head-Change  Column Row Layer    Maximum-Flux-Residual          L2-NORM 
          0                 1           6            54  107     2      -0.7041805396E+01      56   99    3        -0.3822300097E+05      0.2754803737E+06
          0                 2           4            54  107     2       0.5248364902E+00      60   61    1        -0.8272647081E+04      0.2894350483E+05
          0                 3           2            30   42     2       0.1692418737E-01      59  101    1         0.2416654219E+03      0.2588964419E+03
          0                 4           1            30   42     1       0.4256605659E-03      92   74    3         0.2262322189E+02      0.2269314519E+02

    ------------------------------------------------
       NWT REQUIRED            4 OUTER ITERATIONS 
       AND A TOTAL OF         13 INNER ITERATIONS.
    ------------------------------------------------

 OUTPUT CONTROL FOR STRESS PERIOD   40   TIME STEP   12
    SAVE BUDGET
 UBDSV1 SAVING "         STORAGE" ON UNIT  39 AT TIME STEP 12, STRESS PERIOD  40
 UBDSV2 SAVING "   CONSTANT HEAD" ON UNIT  39 AT TIME STEP 12, STRESS PERIOD  40
 UBDSV1 SAVING "FLOW RIGHT FACE " ON UNIT  39 AT TIME STEP 12, STRESS PERIOD  40
 UBDSV1 SAVING "FLOW FRONT FACE " ON UNIT  39 AT TIME STEP 12, STRESS PERIOD  40
 UBDSV1 SAVING "FLOW LOWER FACE " ON UNIT  39 AT TIME STEP 12, STRESS PERIOD  40
 UBDSV4 SAVING "           WELLS" ON UNIT  39 AT TIME STEP 12, STRESS PERIOD  40
 UBDSV3 SAVING "              ET" ON UNIT  39 AT TIME STEP 12, STRESS PERIOD  40
 UBDSV3 SAVING "        RECHARGE" ON UNIT  39 AT TIME STEP 12, STRESS PERIOD  40
1
  VOLUMETRIC BUDGET FOR ENTIRE MODEL AT END OF TIME STEP   12, STRESS PERIOD  40
  ------------------------------------------------------------------------------

     CUMULATIVE VOLUMES      L**3       RATES FOR THIS TIME STEP      L**3/T
     ------------------                 ------------------------

           IN:                                      IN:
           ---                                      ---
             STORAGE =262807306240.0000               STORAGE =    12220317.0000
       CONSTANT HEAD = 22420094976.0000         CONSTANT HEAD =     2262597.2500
               WELLS = 17906206720.0000                 WELLS =     1225525.0000
                  ET =           0.0000                    ET =           0.0000
            RECHARGE =266479370240.0000              RECHARGE =    27832940.0000

            TOTAL IN =569612959744.0000              TOTAL IN =    43541380.0000

          OUT:                                     OUT:
          ----                                     ----
             STORAGE = 32736858112.0000               STORAGE =     2127536.0000
       CONSTANT HEAD = 50977292288.0000         CONSTANT HEAD =     2868641.7500
               WELLS =473147244544.0000                 WELLS =    37980848.0000
                  ET = 12750802944.0000                    ET =      564337.5625
            RECHARGE =           0.0000              RECHARGE =           0.0000

           TOTAL OUT =569612238848.0000             TOTAL OUT =    43541360.0000

            IN - OUT =      720896.0000              IN - OUT =          20.0000

 PERCENT DISCREPANCY =           0.00     PERCENT DISCREPANCY =           0.00






         TIME SUMMARY AT END OF TIME STEP   12 IN STRESS PERIOD   40
                    SECONDS     MINUTES      HOURS       DAYS        YEARS
                    -----------------------------------------------------------
   TIME STEP LENGTH 2.62800E+06  43800.      730.00      30.417     8.32763E-02
 STRESS PERIOD TIME 3.15360E+07 5.25600E+05  8760.0      365.00     0.99932    
         TOTAL TIME 1.26231E+09 2.10385E+07 3.50641E+05  14610.      40.000    
1
1
                            STRESS PERIOD NO.   41, LENGTH =   366.0000    
                            -----------------------------------------------

                              NUMBER OF TIME STEPS =    12

                               MULTIPLIER FOR DELT =     1.000

                            INITIAL TIME STEP SIZE =   30.50000    

   1614 WELLS

 REUSING SURF FROM LAST STRESS PERIOD

 REUSING EVTR FROM LAST STRESS PERIOD

 REUSING EXDP FROM LAST STRESS PERIOD



                           RECHARGE
 READING ON UNIT   16 WITH FORMAT: (15F5.0)            


     63 TIME-VARIANT SPECIFIED-HEAD CELLS
 
 SOLVING FOR HEAD 
                                                   Max.-Head-Change                         Max.-Flux-Residual
  Residual-Control   Outer-Iter.   Inner-Iter.     Column Row Layer    Maximum-Head-Change  Column Row Layer    Maximum-Flux-Residual          L2-NORM 
          0                 1           6            62   87     3      -0.4507785402E+02      56   98    3         0.3650822806E+06      0.1320810267E+07
          0                 2           5            55  108     3       0.4873552128E+01      55  108    3         0.2293111261E+06      0.2926653860E+06
          0                 3           2            65    2     2      -0.7604337672E-01      54  108    3        -0.7604378455E+03      0.1498465748E+04
          0                 4           2            65    2     2      -0.4405676247E-02      86   65    2        -0.1410620774E+03      0.2043348448E+03

    ------------------------------------------------
       NWT REQUIRED            4 OUTER ITERATIONS 
       AND A TOTAL OF         15 INNER ITERATIONS.
    ------------------------------------------------

 NO OUTPUT CONTROL FOR STRESS PERIOD   41   TIME STEP    1
 
 SOLVING FOR HEAD 
                                                   Max.-Head-Change                         Max.-Flux-Residual
  Residual-Control   Outer-Iter.   Inner-Iter.     Column Row Layer    Maximum-Head-Change  Column Row Layer    Maximum-Flux-Residual          L2-NORM 
          0                 1           6            56   98     3       0.1286518939E+02      56   98    3         0.3040022261E+06      0.8296395550E+06
          0                 2           4            23   46     2      -0.1108484435E+02      56   98    3        -0.2458464626E+05      0.8418354345E+05
          0                 3           3            23   46     2       0.9175203682E+00      57  103    2        -0.3818752111E+04      0.4591679098E+04
          0                 4           2            57  103     1      -0.1004277912E-01      57  103    2        -0.3442412344E+03      0.4990325597E+03
          0                 5           2            57  103     1      -0.9190339449E-03      86   65    2        -0.2631783908E+03      0.3604096675E+03

    ------------------------------------------------
       NWT REQUIRED            5 OUTER ITERATIONS 
       AND A TOTAL OF         17 INNER ITERATIONS.
    ------------------------------------------------

 NO OUTPUT CONTROL FOR STRESS PERIOD   41   TIME STEP    2
 
 SOLVING FOR HEAD 
                                                   Max.-Head-Change                         Max.-Flux-Residual
  Residual-Control   Outer-Iter.   Inner-Iter.     Column Row Layer    Maximum-Head-Change  Column Row Layer    Maximum-Flux-Residual          L2-NORM 
          0                 1           6            56   98     3       0.1194139098E+02      56   98    3         0.2723135520E+06      0.6946084964E+06
          0                 2           4            70   19     1      -0.1568994193E+01      70   19    1        -0.5777378208E+05      0.9164236981E+05
          0                 3           3            57  103     2       0.1167106769E+00      24   46    2        -0.2172373206E+04      0.2434844602E+04
          0                 4           2            24   46     1      -0.9297333968E-02      86   65    2        -0.3850601961E+03      0.5614410596E+03

    ------------------------------------------------
       NWT REQUIRED            4 OUTER ITERATIONS 
       AND A TOTAL OF         15 INNER ITERATIONS.
    ------------------------------------------------

 NO OUTPUT CONTROL FOR STRESS PERIOD   41   TIME STEP    3
 
 SOLVING FOR HEAD 
                                                   Max.-Head-Change                         Max.-Flux-Residual
  Residual-Control   Outer-Iter.   Inner-Iter.     Column Row Layer    Maximum-Head-Change  Column Row Layer    Maximum-Flux-Residual          L2-NORM 
          0                 1           6            56   98     3       0.1085064902E+02      56   98    3         0.2481338072E+06      0.6256095463E+06
          0                 2           4            55  108     2      -0.6585098614E+01      55  108    2        -0.3427599061E+05      0.7246069498E+05
          0                 3           3            55  108     2       0.5633401623E+00      55  108    2         0.3229998088E+04      0.3488348414E+04
          0                 4           2            55  108     2       0.3016034125E-02      92   74    3        -0.4704750148E+03      0.4735982916E+03

    ------------------------------------------------
       NWT REQUIRED            4 OUTER ITERATIONS 
       AND A TOTAL OF         15 INNER ITERATIONS.
    ------------------------------------------------

 NO OUTPUT CONTROL FOR STRESS PERIOD   41   TIME STEP    4
 
 SOLVING FOR HEAD 
                                                   Max.-Head-Change                         Max.-Flux-Residual
  Residual-Control   Outer-Iter.   Inner-Iter.     Column Row Layer    Maximum-Head-Change  Column Row Layer    Maximum-Flux-Residual          L2-NORM 
          0                 1           6            56   98     3       0.9840886502E+01      56   98    3         0.2255496953E+06      0.5813659851E+06
          0                 2           4            56   98     3      -0.9032291333E+00      56   98    3        -0.2314725922E+05      0.5918543392E+05
          0                 3           2            66   25     2      -0.3372510607E-01      66   25    2        -0.7951987223E+03      0.1002278806E+04
          0                 4           1            85   85     2      -0.8528822743E-04      92   74    3        -0.5828018909E+03      0.5828026778E+03

    ------------------------------------------------
       NWT REQUIRED            4 OUTER ITERATIONS 
       AND A TOTAL OF         13 INNER ITERATIONS.
    ------------------------------------------------

 NO OUTPUT CONTROL FOR STRESS PERIOD   41   TIME STEP    5
 
 SOLVING FOR HEAD 
                                                   Max.-Head-Change                         Max.-Flux-Residual
  Residual-Control   Outer-Iter.   Inner-Iter.     Column Row Layer    Maximum-Head-Change  Column Row Layer    Maximum-Flux-Residual          L2-NORM 
          0                 1           6            56   98     3       0.8912529645E+01      56   98    3         0.2046272981E+06      0.5501503070E+06
          0                 2           4            73   15     3       0.1282782311E+01      56   98    3        -0.2094614745E+05      0.5745224100E+05
          0                 3           2            73   15     3      -0.9306694879E-01      73   15    3        -0.7511329579E+03      0.1059824547E+04
          0                 4           1            73   15     1      -0.1268722092E-03      92   74    3        -0.6948877607E+03      0.6948885978E+03

    ------------------------------------------------
       NWT REQUIRED            4 OUTER ITERATIONS 
       AND A TOTAL OF         13 INNER ITERATIONS.
    ------------------------------------------------

 NO OUTPUT CONTROL FOR STRESS PERIOD   41   TIME STEP    6
 
 SOLVING FOR HEAD 
                                                   Max.-Head-Change                         Max.-Flux-Residual
  Residual-Control   Outer-Iter.   Inner-Iter.     Column Row Layer    Maximum-Head-Change  Column Row Layer    Maximum-Flux-Residual          L2-NORM 
          0                 1           6            56   98     3       0.8063986413E+01      56   98    3         0.1853789776E+06      0.5253817513E+06
          0                 2           4            56  105     2      -0.3147264216E+01      56   98    3        -0.1893137167E+05      0.5603637318E+05
          0                 3           3            56  105     2       0.2669834543E+00      56  105    2         0.1358306317E+04      0.1709905166E+04
          0                 4           2            56  105     2       0.1650048641E-02      92   74    3        -0.8066872150E+03      0.8067353688E+03

    ------------------------------------------------
       NWT REQUIRED            4 OUTER ITERATIONS 
       AND A TOTAL OF         15 INNER ITERATIONS.
    ------------------------------------------------

 NO OUTPUT CONTROL FOR STRESS PERIOD   41   TIME STEP    7
 
 SOLVING FOR HEAD 
                                                   Max.-Head-Change                         Max.-Flux-Residual
  Residual-Control   Outer-Iter.   Inner-Iter.     Column Row Layer    Maximum-Head-Change  Column Row Layer    Maximum-Flux-Residual          L2-NORM 
          0                 1           6            56   98     3       0.7292176714E+01      56   98    3         0.1677750403E+06      0.5059213241E+06
          0                 2           4            56   98     3      -0.6653869598E+00      56   98    3        -0.1709719175E+05      0.5147684560E+05
          0                 3           2            27   67     2       0.3232345759E-01      92   74    3        -0.9186643552E+03      0.9599219442E+03
          0                 4           1            27   67     2       0.1672883246E-03      92   74    3        -0.9183335994E+03      0.9183499819E+03
          0                 5           1            92   74     3      -0.1772743506E-04      92   74    3        -0.9180027280E+03      0.9180173636E+03
          0                 6           1            92   74     3      -0.1772094418E-04      92   74    3        -0.9176698940E+03      0.9176844523E+03
          0                 7           1            92   74     3      -0.1771442628E-04      92   74    3        -0.9173336828E+03      0.9173482334E+03
          0                 8           1            92   74     3      -0.1770785937E-04      92   74    3        -0.9169960106E+03      0.9170105587E+03
          0                 9           1            92   74     3      -0.1770125343E-04      92   74    3        -0.9166558736E+03      0.9166704195E+03
          0                10           1            92   74     3      -0.1769460548E-04      92   74    3        -0.9163136716E+03      0.9163282155E+03
                                                   Max.-Head-Change                         Max.-Flux-Residual
  Residual-Control   Outer-Iter.   Inner-Iter.     Column Row Layer    Maximum-Head-Change  Column Row Layer    Maximum-Flux-Residual          L2-NORM 
          0                11           1            92   74     3      -0.1768791601E-04      92   74    3        -0.9159693398E+03      0.9159838818E+03
          0                12           1            92   74     3      -0.1768118402E-04      92   74    3        -0.9156228359E+03      0.9156373760E+03
          0                13           1            92   74     3      -0.1767441002E-04      92   74    3        -0.9152741464E+03      0.9152886847E+03
          0                14           1            92   74     3      -0.1766759349E-04      92   74    3        -0.9149232702E+03      0.9149378066E+03
          0                15           1            92   74     3      -0.1766073544E-04      92   74    3        -0.9145702093E+03      0.9145847440E+03
          0                16           1            92   74     3      -0.1765383438E-04      92   74    3        -0.9142149670E+03      0.9142295000E+03
          0                17           1            92   74     3      -0.1764689180E-04      92   74    3        -0.9138575468E+03      0.9138720782E+03
          0                18           1            92   74     3      -0.1763990720E-04      92   74    3        -0.9134979522E+03      0.9135124820E+03
          0                19           1            92   74     3      -0.1763288108E-04      92   74    3        -0.9131361868E+03      0.9131507152E+03
          0                20           1            92   74     3      -0.1762581244E-04      92   74    3        -0.9127722543E+03      0.9127867811E+03
                                                   Max.-Head-Change                         Max.-Flux-Residual
  Residual-Control   Outer-Iter.   Inner-Iter.     Column Row Layer    Maximum-Head-Change  Column Row Layer    Maximum-Flux-Residual          L2-NORM 
          0                21           1            92   74     3      -0.1761870278E-04      92   74    3        -0.9124061583E+03      0.9124206837E+03
          0                22           1            92   74     3      -0.1761155111E-04      92   74    3        -0.9120379023E+03      0.9120524264E+03
          0                23           1            92   74     3      -0.1760435791E-04      92   74    3        -0.9116674902E+03      0.9116820129E+03
          0                24           1            92   74     3      -0.1759712320E-04      92   74    3        -0.9112949256E+03      0.9113094470E+03
          0                25           1            92   74     3      -0.1758984747E-04      92   74    3        -0.9109202121E+03      0.9109347324E+03
          0                26           1            92   74     3      -0.1758252972E-04      92   74    3        -0.9105433536E+03      0.9105578727E+03
          0                27           1            92   74     3      -0.1757517096E-04      92   74    3        -0.9101643537E+03      0.9101788717E+03
          0                28           1            92   74     3      -0.1756777067E-04      92   74    3        -0.9097832163E+03      0.9097977332E+03
          0                29           1            92   74     3      -0.1756032937E-04      92   74    3        -0.9093999451E+03      0.9094144610E+03
          0                30           1            92   74     3      -0.1755284754E-04      92   74    3        -0.9090145440E+03      0.9090290589E+03
                                                   Max.-Head-Change                         Max.-Flux-Residual
  Residual-Control   Outer-Iter.   Inner-Iter.     Column Row Layer    Maximum-Head-Change  Column Row Layer    Maximum-Flux-Residual          L2-NORM 
          0                31           1            92   74     3      -0.1754532420E-04      92   74    3        -0.9086270167E+03      0.9086415307E+03
          0                32           1            92   74     3      -0.1753775985E-04      92   74    3        -0.9082373671E+03      0.9082518802E+03
          0                33           1            92   74     3      -0.1753015497E-04      92   74    3        -0.9078455990E+03      0.9078601114E+03
          0                34           1            92   74     3      -0.1752250908E-04      92   74    3        -0.9074517164E+03      0.9074662280E+03
          0                35           1            92   74     3      -0.1751482266E-04      92   74    3        -0.9070557231E+03      0.9070702340E+03
          0                36           1            92   74     3      -0.1750709523E-04      92   74    3        -0.9066576231E+03      0.9066721333E+03
          0                37           1            92   74     3      -0.1749932728E-04      92   74    3        -0.9062574202E+03      0.9062719299E+03
          0                38           1            92   74     3      -0.1749151982E-04      92   74    3        -0.9058551185E+03      0.9058696276E+03
          0                39           1            92   74     3      -0.1748367083E-04      92   74    3        -0.9054507218E+03      0.9054652304E+03
          0                40           1            92   74     3      -0.1747578183E-04      92   74    3        -0.9050442342E+03      0.9050587424E+03
                                                   Max.-Head-Change                         Max.-Flux-Residual
  Residual-Control   Outer-Iter.   Inner-Iter.     Column Row Layer    Maximum-Head-Change  Column Row Layer    Maximum-Flux-Residual          L2-NORM 
          0                41           1            92   74     3      -0.1746785281E-04      92   74    3        -0.9046356598E+03      0.9046501676E+03
          0                42           1            92   74     3      -0.1745988377E-04      92   74    3        -0.9042250024E+03      0.9042395099E+03
          0                43           1            92   74     3      -0.1745187371E-04      92   74    3        -0.9038122662E+03      0.9038267734E+03
          0                44           1            92   74     3      -0.1744382464E-04      92   74    3        -0.9033974553E+03      0.9034119622E+03
          0                45           1            92   74     3      -0.1743573505E-04      92   74    3        -0.9029805736E+03      0.9029950803E+03
          0                46           1            92   74     3      -0.1742760594E-04      92   74    3        -0.9025616252E+03      0.9025761319E+03
          0                47           1            92   74     3      -0.1741943731E-04      92   74    3        -0.9021406144E+03      0.9021551209E+03
          0                48           1            92   74     3      -0.1741122867E-04      92   74    3        -0.9017175452E+03      0.9017320517E+03
          0                49           1            92   74     3      -0.1740298001E-04      92   74    3        -0.9012924217E+03      0.9013069283E+03
          0                50           1            92   74     3      -0.1739469233E-04      92   74    3        -0.9008652482E+03      0.9008797548E+03
                                                   Max.-Head-Change                         Max.-Flux-Residual
  Residual-Control   Outer-Iter.   Inner-Iter.     Column Row Layer    Maximum-Head-Change  Column Row Layer    Maximum-Flux-Residual          L2-NORM 
          0                51           1            92   74     3      -0.1738636563E-04      92   74    3        -0.9004360288E+03      0.9004505355E+03
          0                52           1            92   74     3      -0.1737799842E-04      92   74    3        -0.9000047677E+03      0.9000192745E+03
          0                53           1            92   74     3      -0.1736959268E-04      92   74    3        -0.8995714690E+03      0.8995859761E+03
          0                54           2            92   74     3      -0.3954053900E-01      92   74    3        -0.8991370111E+03      0.8991515184E+03
          0                55           2            92   74     3       0.3594530581E-02      92   74    3         0.9798441646E+02      0.9989165813E+02

    ------------------------------------------------
       NWT REQUIRED           55 OUTER ITERATIONS 
       AND A TOTAL OF         66 INNER ITERATIONS.
    ------------------------------------------------

 NO OUTPUT CONTROL FOR STRESS PERIOD   41   TIME STEP    8
 
 SOLVING FOR HEAD 
                                                   Max.-Head-Change                         Max.-Flux-Residual
  Residual-Control   Outer-Iter.   Inner-Iter.     Column Row Layer    Maximum-Head-Change  Column Row Layer    Maximum-Flux-Residual          L2-NORM 
          0                 1           6            56   98     3       0.6592989147E+01      56   98    3         0.1517544225E+06      0.4895462839E+06
          0                 2           4            24   47     2      -0.1224836153E+01      56   98    3        -0.1543492778E+05      0.5084878293E+05
          0                 3           2            24   47     2       0.9704588414E-01      48   34    1         0.6686144410E+03      0.8716163416E+03
          0                 4           2            24   47     1       0.1147756113E-02      66   43    3        -0.3354080794E+03      0.3354316542E+03

    ------------------------------------------------
       NWT REQUIRED            4 OUTER ITERATIONS 
       AND A TOTAL OF         14 INNER ITERATIONS.
    ------------------------------------------------

 NO OUTPUT CONTROL FOR STRESS PERIOD   41   TIME STEP    9
 
 SOLVING FOR HEAD 
                                                   Max.-Head-Change                         Max.-Flux-Residual
  Residual-Control   Outer-Iter.   Inner-Iter.     Column Row Layer    Maximum-Head-Change  Column Row Layer    Maximum-Flux-Residual          L2-NORM 
          0                 1           6            56   98     3       0.5961663648E+01      56   98    3         0.1372342575E+06      0.4751942876E+06
          0                 2           4            56   98     3      -0.5423426432E+00      56   98    3        -0.1393399512E+05      0.4849880391E+05
          0                 3           2            73   98     1       0.2830856550E-01      44   34    1        -0.1919541280E+04      0.2019425268E+04
          0                 4           2            44   34     1      -0.1438744746E-02      66   43    3        -0.6194608252E+03      0.6444252734E+03

    ------------------------------------------------
       NWT REQUIRED            4 OUTER ITERATIONS 
       AND A TOTAL OF         14 INNER ITERATIONS.
    ------------------------------------------------

 NO OUTPUT CONTROL FOR STRESS PERIOD   41   TIME STEP   10
 
 SOLVING FOR HEAD 
                                                   Max.-Head-Change                         Max.-Flux-Residual
  Residual-Control   Outer-Iter.   Inner-Iter.     Column Row Layer    Maximum-Head-Change  Column Row Layer    Maximum-Flux-Residual          L2-NORM 
          0                 1           6            56   98     3       0.5393095992E+01      56   98    3         0.1241177398E+06      0.4632830187E+06
          0                 2           4            76   55     1      -0.8190812516E+00      62   94    1        -0.1551686510E+05      0.5221768373E+05
          0                 3           2            76   55     1       0.6951549700E-01      15   14    1        -0.1569005908E+04      0.2769565155E+04
          0                 4           2            15   14     2      -0.8220356108E-02      15   14    2        -0.1183955698E+04      0.1492744782E+04
          0                 5           1            15   14     2      -0.7391117108E-03      66   43    3        -0.8964927890E+03      0.9029349286E+03
          0                 6           1            66   43     3      -0.7306431681E-04      66   43    3        -0.8953719998E+03      0.8954283911E+03
          0                 7           1            66   43     3      -0.7295718675E-04      66   43    3        -0.8941527104E+03      0.8941534749E+03
          0                 8           2            66   43     3      -0.5611196316E-01      66   43    3        -0.8928757803E+03      0.8928759683E+03
          0                 9           2            66   43     3       0.5100649421E-02      66   43    3         0.9111371961E+02      0.9144123839E+02

    ------------------------------------------------
       NWT REQUIRED            9 OUTER ITERATIONS 
       AND A TOTAL OF         21 INNER ITERATIONS.
    ------------------------------------------------

 NO OUTPUT CONTROL FOR STRESS PERIOD   41   TIME STEP   11
 
 SOLVING FOR HEAD 
                                                   Max.-Head-Change                         Max.-Flux-Residual
  Residual-Control   Outer-Iter.   Inner-Iter.     Column Row Layer    Maximum-Head-Change  Column Row Layer    Maximum-Flux-Residual          L2-NORM 
          0                 1           6            56   98     3       0.4882073496E+01      56   98    3         0.1123005425E+06      0.4537045733E+06
          0                 2           4            75   56     1      -0.6632352824E+00      69   21    1        -0.1808825676E+05      0.4944027510E+05
          0                 3           2            75   56     1       0.5742958842E-01      15   14    1         0.5175629851E+03      0.7528487300E+03
          0                 4           1            75   56     1       0.2607568770E-03      44   33    1        -0.1650128978E+02      0.1711998853E+02

    ------------------------------------------------
       NWT REQUIRED            4 OUTER ITERATIONS 
       AND A TOTAL OF         13 INNER ITERATIONS.
    ------------------------------------------------

 OUTPUT CONTROL FOR STRESS PERIOD   41   TIME STEP   12
    SAVE BUDGET
    SAVE HEAD FOR LAYERS:   1  2  3
 UBDSV1 SAVING "         STORAGE" ON UNIT  39 AT TIME STEP 12, STRESS PERIOD  41
 UBDSV2 SAVING "   CONSTANT HEAD" ON UNIT  39 AT TIME STEP 12, STRESS PERIOD  41
 UBDSV1 SAVING "FLOW RIGHT FACE " ON UNIT  39 AT TIME STEP 12, STRESS PERIOD  41
 UBDSV1 SAVING "FLOW FRONT FACE " ON UNIT  39 AT TIME STEP 12, STRESS PERIOD  41
 UBDSV1 SAVING "FLOW LOWER FACE " ON UNIT  39 AT TIME STEP 12, STRESS PERIOD  41
 UBDSV4 SAVING "           WELLS" ON UNIT  39 AT TIME STEP 12, STRESS PERIOD  41
 UBDSV3 SAVING "              ET" ON UNIT  39 AT TIME STEP 12, STRESS PERIOD  41
 UBDSV3 SAVING "        RECHARGE" ON UNIT  39 AT TIME STEP 12, STRESS PERIOD  41

 HEAD WILL BE SAVED ON UNIT   31 AT END OF TIME STEP   12, STRESS PERIOD   41
1
  VOLUMETRIC BUDGET FOR ENTIRE MODEL AT END OF TIME STEP   12, STRESS PERIOD  41
  ------------------------------------------------------------------------------

     CUMULATIVE VOLUMES      L**3       RATES FOR THIS TIME STEP      L**3/T
     ------------------                 ------------------------

           IN:                                      IN:
           ---                                      ---
             STORAGE =270222819328.0000               STORAGE =    19378568.0000
       CONSTANT HEAD = 23279689728.0000         CONSTANT HEAD =     2393878.2500
               WELLS = 18354743296.0000                 WELLS =     1225525.0000
                  ET =           0.0000                    ET =           0.0000
            RECHARGE =274213339136.0000              RECHARGE =    21131138.0000

            TOTAL IN =586070622208.0000              TOTAL IN =    44129112.0000

          OUT:                                     OUT:
          ----                                     ----
             STORAGE = 33870725120.0000               STORAGE =     2368232.2500
       CONSTANT HEAD = 52004188160.0000         CONSTANT HEAD =     2719703.0000
               WELLS =487249051648.0000                 WELLS =    38527388.0000
                  ET = 12946128896.0000                    ET =      513788.6250
            RECHARGE =           0.0000              RECHARGE =           0.0000

           TOTAL OUT =586070097920.0000             TOTAL OUT =    44129112.0000

            IN - OUT =      524288.0000              IN - OUT =           0.0000

 PERCENT DISCREPANCY =           0.00     PERCENT DISCREPANCY =           0.00






         TIME SUMMARY AT END OF TIME STEP   12 IN STRESS PERIOD   41
                    SECONDS     MINUTES      HOURS       DAYS        YEARS
                    -----------------------------------------------------------
   TIME STEP LENGTH 2.63520E+06  43920.      732.00      30.500     8.35044E-02
 STRESS PERIOD TIME 3.16224E+07 5.27040E+05  8784.0      366.00      1.0021    
         TOTAL TIME 1.29393E+09 2.15655E+07 3.59425E+05  14976.      41.002    
1
1
                            STRESS PERIOD NO.   42, LENGTH =   365.0000    
                            -----------------------------------------------

                              NUMBER OF TIME STEPS =    12

                               MULTIPLIER FOR DELT =     1.000

                            INITIAL TIME STEP SIZE =   30.41667    

   1572 WELLS

 REUSING SURF FROM LAST STRESS PERIOD

 REUSING EVTR FROM LAST STRESS PERIOD

 REUSING EXDP FROM LAST STRESS PERIOD



                           RECHARGE
 READING ON UNIT   16 WITH FORMAT: (15F5.0)            


     63 TIME-VARIANT SPECIFIED-HEAD CELLS
 
 SOLVING FOR HEAD 
                                                   Max.-Head-Change                         Max.-Flux-Residual
  Residual-Control   Outer-Iter.   Inner-Iter.     Column Row Layer    Maximum-Head-Change  Column Row Layer    Maximum-Flux-Residual          L2-NORM 
          0                 1           6            84   50     3      -0.1457472984E+03      58   96    3        -0.4188734683E+06      0.1029769003E+07
          0                 2           5            65    5     2      -0.1640090114E+02      65    5    2        -0.4347297287E+06      0.5786202550E+06
          0                 3           3            66    5     2       0.1571582635E+01      23   46    2        -0.6938211119E+04      0.9207304686E+04
          0                 4           2            66    5     2       0.2382960954E+00      64  106    1        -0.2261560802E+03      0.4358944350E+03
          0                 5           2            66    5     2       0.3572199637E-01      64  106    1        -0.2037479209E+02      0.4271903070E+02
          0                 6           2            66    5     2       0.5333813663E-02      66    5    2         0.2223423722E+01      0.4498525335E+01

    ------------------------------------------------
       NWT REQUIRED            6 OUTER ITERATIONS 
       AND A TOTAL OF         20 INNER ITERATIONS.
    ------------------------------------------------

 NO OUTPUT CONTROL FOR STRESS PERIOD   42   TIME STEP    1
 
 SOLVING FOR HEAD 
                                                   Max.-Head-Change                         Max.-Flux-Residual
  Residual-Control   Outer-Iter.   Inner-Iter.     Column Row Layer    Maximum-Head-Change  Column Row Layer    Maximum-Flux-Residual          L2-NORM 
          0                 1           6            84   50     3      -0.2131603951E+02      58   96    3        -0.2693707598E+06      0.7315589443E+06
          0                 2           4            70   19     2       0.2701846668E+01      73   14    1        -0.4964807256E+05      0.9563787754E+05
          0                 3           3            70   19     2      -0.2447808676E+00      70   19    2        -0.3275198462E+04      0.3384149460E+04
          0                 4           1            71   19     2      -0.7044281825E-03      74   95    1        -0.1237592140E+02      0.1389933494E+02

    ------------------------------------------------
       NWT REQUIRED            4 OUTER ITERATIONS 
       AND A TOTAL OF         14 INNER ITERATIONS.
    ------------------------------------------------

 NO OUTPUT CONTROL FOR STRESS PERIOD   42   TIME STEP    2
 
 SOLVING FOR HEAD 
                                                   Max.-Head-Change                         Max.-Flux-Residual
  Residual-Control   Outer-Iter.   Inner-Iter.     Column Row Layer    Maximum-Head-Change  Column Row Layer    Maximum-Flux-Residual          L2-NORM 
          0                 1           6            56   98     3      -0.8678719908E+01      56   98    3        -0.2024968515E+06      0.6395790066E+06
          0                 2           4            70   17     2       0.1648478393E+01      56   98    3         0.1982176517E+05      0.7180129347E+05
          0                 3           2            70   17     2      -0.1498084984E+00      70   17    2        -0.1372848295E+04      0.1899778485E+04
          0                 4           1            74   95     1       0.5869302725E-03      44   32    1         0.1258166027E+02      0.1698781912E+02

    ------------------------------------------------
       NWT REQUIRED            4 OUTER ITERATIONS 
       AND A TOTAL OF         13 INNER ITERATIONS.
    ------------------------------------------------

 NO OUTPUT CONTROL FOR STRESS PERIOD   42   TIME STEP    3
 
 SOLVING FOR HEAD 
                                                   Max.-Head-Change                         Max.-Flux-Residual
  Residual-Control   Outer-Iter.   Inner-Iter.     Column Row Layer    Maximum-Head-Change  Column Row Layer    Maximum-Flux-Residual          L2-NORM 
          0                 1           6            56   98     3      -0.7839643110E+01      56   98    3        -0.1816778686E+06      0.5907350082E+06
          0                 2           4            56   98     3       0.6938925378E+00      56   98    3         0.1782441902E+05      0.6368272602E+05
          0                 3           2            62   91     1       0.4692696061E-01      62   91    1         0.1456635993E+04      0.2079542385E+04
          0                 4           1            85   85     2      -0.9060569626E-04      59   62    2        -0.8374362051E+01      0.1258587597E+02

    ------------------------------------------------
       NWT REQUIRED            4 OUTER ITERATIONS 
       AND A TOTAL OF         13 INNER ITERATIONS.
    ------------------------------------------------

 NO OUTPUT CONTROL FOR STRESS PERIOD   42   TIME STEP    4
 
 SOLVING FOR HEAD 
                                                   Max.-Head-Change                         Max.-Flux-Residual
  Residual-Control   Outer-Iter.   Inner-Iter.     Column Row Layer    Maximum-Head-Change  Column Row Layer    Maximum-Flux-Residual          L2-NORM 
          0                 1           6            56   98     3      -0.7124700773E+01      56   98    3        -0.1640711853E+06      0.5606657990E+06
          0                 2           4            55  109     2      -0.8399021889E+00      71   19    2        -0.1781985646E+05      0.6073602281E+05
          0                 3           3            55  109     2       0.7247030560E-01      44   33    1        -0.6601912425E+03      0.1015297497E+04
          0                 4           1            55  109     2       0.3293839904E-03      44   33    1         0.1928977752E+02      0.2000776383E+02

    ------------------------------------------------
       NWT REQUIRED            4 OUTER ITERATIONS 
       AND A TOTAL OF         14 INNER ITERATIONS.
    ------------------------------------------------

 NO OUTPUT CONTROL FOR STRESS PERIOD   42   TIME STEP    5
 
 SOLVING FOR HEAD 
                                                   Max.-Head-Change                         Max.-Flux-Residual
  Residual-Control   Outer-Iter.   Inner-Iter.     Column Row Layer    Maximum-Head-Change  Column Row Layer    Maximum-Flux-Residual          L2-NORM 
          0                 1           6            56   98     3      -0.6511489931E+01      56   98    3        -0.1490757237E+06      0.5407959720E+06
          0                 2           4            59   95     1      -0.7197496977E+00      56   98    3         0.1467819302E+05      0.5596405213E+05
          0                 3           2            59   95     2       0.6084775994E-01      28   66    2        -0.1123683834E+04      0.1537615048E+04
          0                 4           2            28   66     2      -0.2900589598E-02      28   66    2        -0.1011570036E+03      0.1046980052E+03

    ------------------------------------------------
       NWT REQUIRED            4 OUTER ITERATIONS 
       AND A TOTAL OF         14 INNER ITERATIONS.
    ------------------------------------------------

 NO OUTPUT CONTROL FOR STRESS PERIOD   42   TIME STEP    6
 
 SOLVING FOR HEAD 
                                                   Max.-Head-Change                         Max.-Flux-Residual
  Residual-Control   Outer-Iter.   Inner-Iter.     Column Row Layer    Maximum-Head-Change  Column Row Layer    Maximum-Flux-Residual          L2-NORM 
          0                 1           6            56   98     3      -0.5982280975E+01      56   98    3        -0.1362189847E+06      0.5264058165E+06
          0                 2           4            64   38     2      -0.2286249277E+01      62   93    2         0.4352674847E+05      0.6854845916E+05
          0                 3           2            64   38     2       0.1175243862E+00      44   33    1        -0.8624664528E+03      0.9087190204E+03
          0                 4           2            64   38     2       0.4633353121E-02      44   33    1         0.3749568814E+02      0.3848894997E+02

    ------------------------------------------------
       NWT REQUIRED            4 OUTER ITERATIONS 
       AND A TOTAL OF         14 INNER ITERATIONS.
    ------------------------------------------------

 NO OUTPUT CONTROL FOR STRESS PERIOD   42   TIME STEP    7
 
 SOLVING FOR HEAD 
                                                   Max.-Head-Change                         Max.-Flux-Residual
  Residual-Control   Outer-Iter.   Inner-Iter.     Column Row Layer    Maximum-Head-Change  Column Row Layer    Maximum-Flux-Residual          L2-NORM 
          0                 1           6            56   98     3      -0.5522886775E+01      56   98    3        -0.1251269469E+06      0.5141849614E+06
          0                 2           4            51  103     3       0.2540962346E+02      51  103    3         0.3193524669E+05      0.6482734729E+05
          0                 3           2            51  103     3      -0.2310028294E+01      58  104    1        -0.4088888539E+04      0.5297027516E+04
          0                 4           2            58  104     1      -0.5716316201E-02      58  104    1        -0.3687007860E+03      0.3721419593E+03

    ------------------------------------------------
       NWT REQUIRED            4 OUTER ITERATIONS 
       AND A TOTAL OF         14 INNER ITERATIONS.
    ------------------------------------------------

 NO OUTPUT CONTROL FOR STRESS PERIOD   42   TIME STEP    8
 
 SOLVING FOR HEAD 
                                                   Max.-Head-Change                         Max.-Flux-Residual
  Residual-Control   Outer-Iter.   Inner-Iter.     Column Row Layer    Maximum-Head-Change  Column Row Layer    Maximum-Flux-Residual          L2-NORM 
          0                 1           6            51  103     3       0.1473725641E+02      56   98    3        -0.1155009915E+06      0.5039482497E+06
          0                 2           4            51  103     3      -0.1340386184E+01      62   93    1        -0.2334604173E+05      0.5806482913E+05
          0                 3           2            62   93     1       0.8621601624E-01      67   22    2         0.2798298628E+04      0.3897105470E+04
          0                 4           2            67   22     2       0.4794940883E-02      67   22    2         0.2518395604E+03      0.2581929788E+03

    ------------------------------------------------
       NWT REQUIRED            4 OUTER ITERATIONS 
       AND A TOTAL OF         14 INNER ITERATIONS.
    ------------------------------------------------

 NO OUTPUT CONTROL FOR STRESS PERIOD   42   TIME STEP    9
 
 SOLVING FOR HEAD 
                                                   Max.-Head-Change                         Max.-Flux-Residual
  Residual-Control   Outer-Iter.   Inner-Iter.     Column Row Layer    Maximum-Head-Change  Column Row Layer    Maximum-Flux-Residual          L2-NORM 
          0                 1           6            56   98     3      -0.4770067837E+01      56   98    3        -0.1071009562E+06      0.4970057611E+06
          0                 2           4            71   20     3       0.1242017711E+01      67   22    2         0.1065850472E+05      0.5229712784E+05
          0                 3           2            71   20     3      -0.1129131425E+00      62   92    1        -0.1144310195E+04      0.2255106510E+04
          0                 4           2            62   92     1      -0.1588002891E-02      62   92    1        -0.1030777286E+03      0.1217312936E+03

    ------------------------------------------------
       NWT REQUIRED            4 OUTER ITERATIONS 
       AND A TOTAL OF         14 INNER ITERATIONS.
    ------------------------------------------------

 NO OUTPUT CONTROL FOR STRESS PERIOD   42   TIME STEP   10
 
 SOLVING FOR HEAD 
                                                   Max.-Head-Change                         Max.-Flux-Residual
  Residual-Control   Outer-Iter.   Inner-Iter.     Column Row Layer    Maximum-Head-Change  Column Row Layer    Maximum-Flux-Residual          L2-NORM 
          0                 1           6            56   98     3      -0.4459852476E+01      56   98    3        -0.9973232207E+05      0.4905488007E+06
          0                 2           4            62   92     1      -0.1082278029E+01      62   92    1        -0.2031035032E+05      0.5620811294E+05
          0                 3           2            62   92     1       0.9604627351E-01      62   92    1         0.1987869626E+04      0.2290861544E+04
          0                 4           1            44   33     1       0.5294779445E-03      44   33    1         0.6969935393E+02      0.7067293782E+02

    ------------------------------------------------
       NWT REQUIRED            4 OUTER ITERATIONS 
       AND A TOTAL OF         13 INNER ITERATIONS.
    ------------------------------------------------

 NO OUTPUT CONTROL FOR STRESS PERIOD   42   TIME STEP   11

 INTERPOLATION FOR HEAD OBS# 1655, ID 2303-42-351  CHANGED BECAUSE AT LEAST ONE
 NEIGHBORING CELL REQUIRED FOR INTERPOLATION IS DRY OR INACTIVE (OBS2BAS7SE)

 INTERPOLATION FOR HEAD OBS# 1741, ID 2615-42-350  CHANGED BECAUSE AT LEAST ONE
 NEIGHBORING CELL REQUIRED FOR INTERPOLATION IS DRY OR INACTIVE (OBS2BAS7SE)

 INTERPOLATION FOR HEAD OBS# 1763, ID 2498-42-350  CHANGED BECAUSE AT LEAST ONE
 NEIGHBORING CELL REQUIRED FOR INTERPOLATION IS DRY OR INACTIVE (OBS2BAS7SE)

 INTERPOLATION FOR HEAD OBS# 2181, ID 2355-42-362  CHANGED BECAUSE AT LEAST ONE
 NEIGHBORING CELL REQUIRED FOR INTERPOLATION IS DRY OR INACTIVE (OBS2BAS7SE)

 INTERPOLATION FOR HEAD OBS# 2525, ID 2243-42-364  CHANGED BECAUSE AT LEAST ONE
 NEIGHBORING CELL REQUIRED FOR INTERPOLATION IS DRY OR INACTIVE (OBS2BAS7SE)

 INTERPOLATION FOR HEAD OBS# 3757, ID 1427-42-362  CHANGED BECAUSE AT LEAST ONE
 NEIGHBORING CELL REQUIRED FOR INTERPOLATION IS DRY OR INACTIVE (OBS2BAS7SE)

 INTERPOLATION FOR HEAD OBS# 7396, ID 218-42-337   CHANGED BECAUSE AT LEAST ONE
 NEIGHBORING CELL REQUIRED FOR INTERPOLATION IS DRY OR INACTIVE (OBS2BAS7SE)

 INTERPOLATION FOR HEAD OBS# 7532, ID 269-42-337   CHANGED BECAUSE AT LEAST ONE
 NEIGHBORING CELL REQUIRED FOR INTERPOLATION IS DRY OR INACTIVE (OBS2BAS7SE)
 
 SOLVING FOR HEAD 
                                                   Max.-Head-Change                         Max.-Flux-Residual
  Residual-Control   Outer-Iter.   Inner-Iter.     Column Row Layer    Maximum-Head-Change  Column Row Layer    Maximum-Flux-Residual          L2-NORM 
          0                 1           6            56   98     3      -0.4185056993E+01      56   98    3        -0.9323650931E+05      0.4859353267E+06
          0                 2           4            56   98     3       0.3733716323E+00      62   89    2         0.1373615710E+05      0.5150716593E+05
          0                 3           2            44   33     1      -0.1031013924E-01      44   33    1        -0.1069994168E+04      0.1070534917E+04
          0                 4           1            44   33     1       0.5850897089E-03      44   33    1         0.7546288806E+02      0.7606650480E+02

    ------------------------------------------------
       NWT REQUIRED            4 OUTER ITERATIONS 
       AND A TOTAL OF         13 INNER ITERATIONS.
    ------------------------------------------------

 OUTPUT CONTROL FOR STRESS PERIOD   42   TIME STEP   12
    SAVE BUDGET
 UBDSV1 SAVING "         STORAGE" ON UNIT  39 AT TIME STEP 12, STRESS PERIOD  42
 UBDSV2 SAVING "   CONSTANT HEAD" ON UNIT  39 AT TIME STEP 12, STRESS PERIOD  42
 UBDSV1 SAVING "FLOW RIGHT FACE " ON UNIT  39 AT TIME STEP 12, STRESS PERIOD  42
 UBDSV1 SAVING "FLOW FRONT FACE " ON UNIT  39 AT TIME STEP 12, STRESS PERIOD  42
 UBDSV1 SAVING "FLOW LOWER FACE " ON UNIT  39 AT TIME STEP 12, STRESS PERIOD  42
 UBDSV4 SAVING "           WELLS" ON UNIT  39 AT TIME STEP 12, STRESS PERIOD  42
 UBDSV3 SAVING "              ET" ON UNIT  39 AT TIME STEP 12, STRESS PERIOD  42
 UBDSV3 SAVING "        RECHARGE" ON UNIT  39 AT TIME STEP 12, STRESS PERIOD  42

 INTERPOLATION FOR HEAD OBS#  636, ID 3014-42-365  CHANGED BECAUSE AT LEAST ONE
 NEIGHBORING CELL REQUIRED FOR INTERPOLATION IS DRY OR INACTIVE (OBS2BAS7SE)

 INTERPOLATION FOR HEAD OBS#  649, ID 3055-43-6    CHANGED BECAUSE AT LEAST ONE
 NEIGHBORING CELL REQUIRED FOR INTERPOLATION IS DRY OR INACTIVE (OBS2BAS7SE)

 INTERPOLATION FOR HEAD OBS# 1334, ID 2852-43-5    CHANGED BECAUSE AT LEAST ONE
 NEIGHBORING CELL REQUIRED FOR INTERPOLATION IS DRY OR INACTIVE (OBS2BAS7SE)

 INTERPOLATION FOR HEAD OBS# 1338, ID 2869-43-8    CHANGED BECAUSE AT LEAST ONE
 NEIGHBORING CELL REQUIRED FOR INTERPOLATION IS DRY OR INACTIVE (OBS2BAS7SE)

 INTERPOLATION FOR HEAD OBS# 1401, ID 2840-43-5    CHANGED BECAUSE AT LEAST ONE
 NEIGHBORING CELL REQUIRED FOR INTERPOLATION IS DRY OR INACTIVE (OBS2BAS7SE)

 INTERPOLATION FOR HEAD OBS# 3700, ID 1479-43-5    CHANGED BECAUSE AT LEAST ONE
 NEIGHBORING CELL REQUIRED FOR INTERPOLATION IS DRY OR INACTIVE (OBS2BAS7SE)

 INTERPOLATION FOR HEAD OBS# 3714, ID 1471-43-5    CHANGED BECAUSE AT LEAST ONE
 NEIGHBORING CELL REQUIRED FOR INTERPOLATION IS DRY OR INACTIVE (OBS2BAS7SE)

 INTERPOLATION FOR HEAD OBS# 3774, ID 1405-43-5    CHANGED BECAUSE AT LEAST ONE
 NEIGHBORING CELL REQUIRED FOR INTERPOLATION IS DRY OR INACTIVE (OBS2BAS7SE)
1
  VOLUMETRIC BUDGET FOR ENTIRE MODEL AT END OF TIME STEP   12, STRESS PERIOD  42
  ------------------------------------------------------------------------------

     CUMULATIVE VOLUMES      L**3       RATES FOR THIS TIME STEP      L**3/T
     ------------------                 ------------------------

           IN:                                      IN:
           ---                                      ---
             STORAGE =276959461376.0000               STORAGE =    17743900.0000
       CONSTANT HEAD = 24173232128.0000         CONSTANT HEAD =     2486087.7500
               WELLS = 18802100224.0000                 WELLS =     1225642.0000
                  ET =           0.0000                    ET =           0.0000
            RECHARGE =283282866176.0000              RECHARGE =    24848356.0000

            TOTAL IN =603217657856.0000              TOTAL IN =    46303984.0000

          OUT:                                     OUT:
          ----                                     ----
             STORAGE = 35569623040.0000               STORAGE =     4092441.5000
       CONSTANT HEAD = 52939862016.0000         CONSTANT HEAD =     2487212.0000
               WELLS =501585772544.0000                 WELLS =    39263640.0000
                  ET = 13121968128.0000                    ET =      460710.0625
            RECHARGE =           0.0000              RECHARGE =           0.0000

           TOTAL OUT =603217199104.0000             TOTAL OUT =    46304004.0000

            IN - OUT =      458752.0000              IN - OUT =         -20.0000

 PERCENT DISCREPANCY =           0.00     PERCENT DISCREPANCY =          -0.00






         TIME SUMMARY AT END OF TIME STEP   12 IN STRESS PERIOD   42
                    SECONDS     MINUTES      HOURS       DAYS        YEARS
                    -----------------------------------------------------------
   TIME STEP LENGTH 2.62800E+06  43800.      730.00      30.417     8.32763E-02
 STRESS PERIOD TIME 3.15360E+07 5.25600E+05  8760.0      365.00     0.99932    
         TOTAL TIME 1.32547E+09 2.20911E+07 3.68185E+05  15341.      42.001    
1
1
                            STRESS PERIOD NO.   43, LENGTH =   365.0000    
                            -----------------------------------------------

                              NUMBER OF TIME STEPS =    12

                               MULTIPLIER FOR DELT =     1.000

                            INITIAL TIME STEP SIZE =   30.41667    

   1504 WELLS

 REUSING SURF FROM LAST STRESS PERIOD

 REUSING EVTR FROM LAST STRESS PERIOD

 REUSING EXDP FROM LAST STRESS PERIOD



                           RECHARGE
 READING ON UNIT   16 WITH FORMAT: (15F5.0)            


     63 TIME-VARIANT SPECIFIED-HEAD CELLS
 
 SOLVING FOR HEAD 
                                                   Max.-Head-Change                         Max.-Flux-Residual
  Residual-Control   Outer-Iter.   Inner-Iter.     Column Row Layer    Maximum-Head-Change  Column Row Layer    Maximum-Flux-Residual          L2-NORM 
          0                 1           7            65    2     2      -0.9121822464E+02      55  115    1         0.2331674563E+06      0.1018607684E+07
          0                 2           5            84   50     2       0.8717304164E+01      84   50    2         0.3129582622E+06      0.3300789702E+06
          0                 3           2            66   18     1       0.2326598838E+00      66   18    1         0.1893553822E+04      0.2397266492E+04
          0                 4           2            65    2     2       0.9978711854E-02      66   18    1         0.7004283927E+01      0.1060929338E+02

    ------------------------------------------------
       NWT REQUIRED            4 OUTER ITERATIONS 
       AND A TOTAL OF         16 INNER ITERATIONS.
    ------------------------------------------------

 NO OUTPUT CONTROL FOR STRESS PERIOD   43   TIME STEP    1

 INTERPOLATION FOR HEAD OBS# 7379, ID 451-43-53    CHANGED BECAUSE AT LEAST ONE
 NEIGHBORING CELL REQUIRED FOR INTERPOLATION IS DRY OR INACTIVE (OBS2BAS7SE)
 
 SOLVING FOR HEAD 
                                                   Max.-Head-Change                         Max.-Flux-Residual
  Residual-Control   Outer-Iter.   Inner-Iter.     Column Row Layer    Maximum-Head-Change  Column Row Layer    Maximum-Flux-Residual          L2-NORM 
          0                 1           6            82   53     3       0.5455567006E+01      55  108    3         0.1373292288E+06      0.6928771587E+06
          0                 2           4            62   95     2       0.1207754676E+01      62   95    2         0.7315091428E+05      0.1006996839E+06
          0                 3           3            62   96     3      -0.1040935774E+00      62   96    3        -0.4501212462E+03      0.7596065979E+03
          0                 4           1            11   85     1      -0.3424063419E-03      11   85    1        -0.1536750410E+02      0.1894538702E+02

    ------------------------------------------------
       NWT REQUIRED            4 OUTER ITERATIONS 
       AND A TOTAL OF         14 INNER ITERATIONS.
    ------------------------------------------------

 NO OUTPUT CONTROL FOR STRESS PERIOD   43   TIME STEP    2
 
 SOLVING FOR HEAD 
                                                   Max.-Head-Change                         Max.-Flux-Residual
  Residual-Control   Outer-Iter.   Inner-Iter.     Column Row Layer    Maximum-Head-Change  Column Row Layer    Maximum-Flux-Residual          L2-NORM 
          0                 1           6            56   99     3      -0.3438454024E+01      55  108    3         0.8975455545E+05      0.5782322071E+06
          0                 2           4            65    6     2      -0.3038388943E+02      65    6    2        -0.1713684900E+05      0.6298166975E+05
          0                 3           3            65    6     2       0.2421140339E+01      65    3    2        -0.2529806475E+05      0.2543240938E+05
          0                 4           2            65    6     2       0.9196069522E-01      65    3    2        -0.2288587695E+04      0.2290119613E+04
          0                 5           2            65    3     2      -0.7197312479E-02      65    3    2        -0.2058445929E+03      0.2059802213E+03

    ------------------------------------------------
       NWT REQUIRED            5 OUTER ITERATIONS 
       AND A TOTAL OF         17 INNER ITERATIONS.
    ------------------------------------------------

 NO OUTPUT CONTROL FOR STRESS PERIOD   43   TIME STEP    3
 
 SOLVING FOR HEAD 
                                                   Max.-Head-Change                         Max.-Flux-Residual
  Residual-Control   Outer-Iter.   Inner-Iter.     Column Row Layer    Maximum-Head-Change  Column Row Layer    Maximum-Flux-Residual          L2-NORM 
          0                 1           6            65    6     2      -0.5638380153E+01      70   19    1        -0.7609920224E+05      0.5225353251E+06
          0                 2           5            65    3     2      -0.3169735744E+02      65    3    2        -0.1274144649E+05      0.5386495857E+05
          0                 3           3            65    3     2       0.2424803644E+01      65    3    2         0.1202396029E+04      0.1466370221E+04
          0                 4           2            65    3     2       0.1242332998E+00      65    3    2         0.6163037740E+02      0.8271991007E+02
          0                 5           2            65    3     2       0.6331350528E-02      65    4    2        -0.4368223701E+01      0.5520465320E+01

    ------------------------------------------------
       NWT REQUIRED            5 OUTER ITERATIONS 
       AND A TOTAL OF         18 INNER ITERATIONS.
    ------------------------------------------------

 NO OUTPUT CONTROL FOR STRESS PERIOD   43   TIME STEP    4
 
 SOLVING FOR HEAD 
                                                   Max.-Head-Change                         Max.-Flux-Residual
  Residual-Control   Outer-Iter.   Inner-Iter.     Column Row Layer    Maximum-Head-Change  Column Row Layer    Maximum-Flux-Residual          L2-NORM 
          0                 1           6            56   99     3      -0.2837959194E+01      70   19    1        -0.6822132194E+05      0.4898420914E+06
          0                 2           4            65    5     2      -0.1821128704E+02      73   14    2         0.2633534075E+05      0.5651622935E+05
          0                 3           2            65    5     2       0.8795921450E+00      65    5    2         0.5090911732E+03      0.7697710675E+03
          0                 4           2            65    5     2       0.3851130884E-01      65    5    2         0.2228843848E+02      0.2305283166E+02
          0                 5           2            65    5     2       0.1697834495E-02      65    5    2         0.9823484509E+00      0.1120275024E+01

    ------------------------------------------------
       NWT REQUIRED            5 OUTER ITERATIONS 
       AND A TOTAL OF         16 INNER ITERATIONS.
    ------------------------------------------------

 NO OUTPUT CONTROL FOR STRESS PERIOD   43   TIME STEP    5
 
 SOLVING FOR HEAD 
                                                   Max.-Head-Change                         Max.-Flux-Residual
  Residual-Control   Outer-Iter.   Inner-Iter.     Column Row Layer    Maximum-Head-Change  Column Row Layer    Maximum-Flux-Residual          L2-NORM 
          0                 1           6            65    5     2      -0.1650911231E+02      70   19    1        -0.6138901637E+05      0.4673287363E+06
          0                 2           4            62   95     1      -0.1155365248E+01      62   95    1        -0.3036356822E+05      0.5580123755E+05
          0                 3           2            62   95     1       0.1030721281E+00      62   95    1         0.2988262003E+04      0.3076647397E+04
          0                 4           2            65    5     2       0.1372509159E-02      62   95    1         0.4208355755E+01      0.4737522760E+01

    ------------------------------------------------
       NWT REQUIRED            4 OUTER ITERATIONS 
       AND A TOTAL OF         14 INNER ITERATIONS.
    ------------------------------------------------

 NO OUTPUT CONTROL FOR STRESS PERIOD   43   TIME STEP    6
 
 SOLVING FOR HEAD 
                                                   Max.-Head-Change                         Max.-Flux-Residual
  Residual-Control   Outer-Iter.   Inner-Iter.     Column Row Layer    Maximum-Head-Change  Column Row Layer    Maximum-Flux-Residual          L2-NORM 
          0                 1           6            56   99     3      -0.2386758889E+01      62   95    2        -0.6005969471E+05      0.4526661705E+06
          0                 2           4            53  117     1      -0.4791099859E+00      53  117    1        -0.2644975170E+05      0.5331423397E+05
          0                 3           2            66  104     2       0.3009222733E-02      59  110    1         0.2472745401E+02      0.5149239925E+02

    ------------------------------------------------
       NWT REQUIRED            3 OUTER ITERATIONS 
       AND A TOTAL OF         12 INNER ITERATIONS.
    ------------------------------------------------

 NO OUTPUT CONTROL FOR STRESS PERIOD   43   TIME STEP    7
 
 SOLVING FOR HEAD 
                                                   Max.-Head-Change                         Max.-Flux-Residual
  Residual-Control   Outer-Iter.   Inner-Iter.     Column Row Layer    Maximum-Head-Change  Column Row Layer    Maximum-Flux-Residual          L2-NORM 
          0                 1           6            56   99     3      -0.2205098261E+01      62   95    2        -0.6470319108E+05      0.4407497189E+06
          0                 2           4            69   21     1      -0.2042298348E+01      62   96    3         0.1140656625E+05      0.4686938764E+05
          0                 3           2            69   21     1       0.1744432037E+00      69   21    1         0.9763500275E+03      0.9895162685E+03
          0                 4           2            69   21     1       0.9313014885E-03      69   21    1         0.5193974614E+01      0.6217421154E+01

    ------------------------------------------------
       NWT REQUIRED            4 OUTER ITERATIONS 
       AND A TOTAL OF         14 INNER ITERATIONS.
    ------------------------------------------------

 NO OUTPUT CONTROL FOR STRESS PERIOD   43   TIME STEP    8
 
 SOLVING FOR HEAD 
                                                   Max.-Head-Change                         Max.-Flux-Residual
  Residual-Control   Outer-Iter.   Inner-Iter.     Column Row Layer    Maximum-Head-Change  Column Row Layer    Maximum-Flux-Residual          L2-NORM 
          0                 1           6            69   21     1      -0.3424670478E+01      62   95    2        -0.6064499881E+05      0.4305661837E+06
          0                 2           4            69   21     1       0.2911678922E+00      62   90    2         0.1525575858E+05      0.4700961799E+05
          0                 3           2            63   91     1       0.2303928373E-01      63   91    1         0.6205926704E+03      0.7098214978E+03
          0                 4           1            85   85     2      -0.9525019131E-04      63   91    1         0.6904559135E+00      0.1802884280E+01

    ------------------------------------------------
       NWT REQUIRED            4 OUTER ITERATIONS 
       AND A TOTAL OF         13 INNER ITERATIONS.
    ------------------------------------------------

 NO OUTPUT CONTROL FOR STRESS PERIOD   43   TIME STEP    9
 
 SOLVING FOR HEAD 
                                                   Max.-Head-Change                         Max.-Flux-Residual
  Residual-Control   Outer-Iter.   Inner-Iter.     Column Row Layer    Maximum-Head-Change  Column Row Layer    Maximum-Flux-Residual          L2-NORM 
          0                 1           6            56   98     3      -0.2121525238E+01      62   95    2        -0.5757018719E+05      0.4224923389E+06
          0                 2           4            73   14     1      -0.1219544640E+01      73   14    1        -0.8903053542E+04      0.4353500072E+05
          0                 3           2            73   14     1       0.1064039029E+00      73   14    1         0.8565266962E+03      0.1100272358E+04
          0                 4           1            73   14     1       0.3768279601E-03      73   14    1         0.2947883379E+01      0.3301730498E+01

    ------------------------------------------------
       NWT REQUIRED            4 OUTER ITERATIONS 
       AND A TOTAL OF         13 INNER ITERATIONS.
    ------------------------------------------------

 NO OUTPUT CONTROL FOR STRESS PERIOD   43   TIME STEP   10
 
 SOLVING FOR HEAD 
                                                   Max.-Head-Change                         Max.-Flux-Residual
  Residual-Control   Outer-Iter.   Inner-Iter.     Column Row Layer    Maximum-Head-Change  Column Row Layer    Maximum-Flux-Residual          L2-NORM 
          0                 1           6            73   14     1      -0.2639874368E+01      62   95    2        -0.5524713017E+05      0.4158276916E+06
          0                 2           4            81   58     1      -0.2184956029E+01      62   60    2         0.6283559585E+04      0.4288579241E+05
          0                 3           2            81   58     1       0.1725653730E+00      62   60    1        -0.2132414930E+04      0.2196167939E+04
          0                 4           2            62   60     1      -0.4312640609E-02      62   60    1        -0.1925845606E+03      0.1927041811E+03

    ------------------------------------------------
       NWT REQUIRED            4 OUTER ITERATIONS 
       AND A TOTAL OF         14 INNER ITERATIONS.
    ------------------------------------------------

 NO OUTPUT CONTROL FOR STRESS PERIOD   43   TIME STEP   11
 
 SOLVING FOR HEAD 
                                                   Max.-Head-Change                         Max.-Flux-Residual
  Residual-Control   Outer-Iter.   Inner-Iter.     Column Row Layer    Maximum-Head-Change  Column Row Layer    Maximum-Flux-Residual          L2-NORM 
          0                 1           6            56   98     3      -0.2058617189E+01      62   95    2        -0.5351046861E+05      0.4108324313E+06
          0                 2           4            62   60     1      -0.2083083810E+00      44   33    2         0.7027465879E+04      0.4233320050E+05
          0                 3           2            62   60     1       0.1869831743E-01      62   60    1         0.4172547202E+03      0.5099497324E+03
          0                 4           1            85   85     2      -0.1006344883E-03      62   60    1         0.5422052294E+00      0.2019698647E+01

    ------------------------------------------------
       NWT REQUIRED            4 OUTER ITERATIONS 
       AND A TOTAL OF         13 INNER ITERATIONS.
    ------------------------------------------------

 OUTPUT CONTROL FOR STRESS PERIOD   43   TIME STEP   12
    SAVE BUDGET
 UBDSV1 SAVING "         STORAGE" ON UNIT  39 AT TIME STEP 12, STRESS PERIOD  43
 UBDSV2 SAVING "   CONSTANT HEAD" ON UNIT  39 AT TIME STEP 12, STRESS PERIOD  43
 UBDSV1 SAVING "FLOW RIGHT FACE " ON UNIT  39 AT TIME STEP 12, STRESS PERIOD  43
 UBDSV1 SAVING "FLOW FRONT FACE " ON UNIT  39 AT TIME STEP 12, STRESS PERIOD  43
 UBDSV1 SAVING "FLOW LOWER FACE " ON UNIT  39 AT TIME STEP 12, STRESS PERIOD  43
 UBDSV4 SAVING "           WELLS" ON UNIT  39 AT TIME STEP 12, STRESS PERIOD  43
 UBDSV3 SAVING "              ET" ON UNIT  39 AT TIME STEP 12, STRESS PERIOD  43
 UBDSV3 SAVING "        RECHARGE" ON UNIT  39 AT TIME STEP 12, STRESS PERIOD  43
1
  VOLUMETRIC BUDGET FOR ENTIRE MODEL AT END OF TIME STEP   12, STRESS PERIOD  43
  ------------------------------------------------------------------------------

     CUMULATIVE VOLUMES      L**3       RATES FOR THIS TIME STEP      L**3/T
     ------------------                 ------------------------

           IN:                                      IN:
           ---                                      ---
             STORAGE =283207892992.0000               STORAGE =    16133495.0000
       CONSTANT HEAD = 25046468608.0000         CONSTANT HEAD =     2352475.0000
               WELLS = 19249457152.0000                 WELLS =     1225642.0000
                  ET =           0.0000                    ET =           0.0000
            RECHARGE =291134210048.0000              RECHARGE =    21511000.0000

            TOTAL IN =618638082048.0000              TOTAL IN =    41222612.0000

          OUT:                                     OUT:
          ----                                     ----
             STORAGE = 37100818432.0000               STORAGE =     3231224.7500
       CONSTANT HEAD = 53848797184.0000         CONSTANT HEAD =     2408047.0000
               WELLS =514381021184.0000                 WELLS =    35055292.0000
                  ET = 13307180032.0000                    ET =      528062.5000
            RECHARGE =           0.0000              RECHARGE =           0.0000

           TOTAL OUT =618637819904.0000             TOTAL OUT =    41222628.0000

            IN - OUT =      262144.0000              IN - OUT =         -16.0000

 PERCENT DISCREPANCY =           0.00     PERCENT DISCREPANCY =          -0.00






         TIME SUMMARY AT END OF TIME STEP   12 IN STRESS PERIOD   43
                    SECONDS     MINUTES      HOURS       DAYS        YEARS
                    -----------------------------------------------------------
   TIME STEP LENGTH 2.62800E+06  43800.      730.00      30.417     8.32763E-02
 STRESS PERIOD TIME 3.15360E+07 5.25600E+05  8760.0      365.00     0.99932    
         TOTAL TIME 1.35700E+09 2.26167E+07 3.76945E+05  15706.      43.001    
1
1
                            STRESS PERIOD NO.   44, LENGTH =   365.0000    
                            -----------------------------------------------

                              NUMBER OF TIME STEPS =    12

                               MULTIPLIER FOR DELT =     1.000

                            INITIAL TIME STEP SIZE =   30.41667    

   1522 WELLS

 REUSING SURF FROM LAST STRESS PERIOD

 REUSING EVTR FROM LAST STRESS PERIOD

 REUSING EXDP FROM LAST STRESS PERIOD



                           RECHARGE
 READING ON UNIT   16 WITH FORMAT: (15F5.0)            


     63 TIME-VARIANT SPECIFIED-HEAD CELLS
 
 SOLVING FOR HEAD 
                                                   Max.-Head-Change                         Max.-Flux-Residual
  Residual-Control   Outer-Iter.   Inner-Iter.     Column Row Layer    Maximum-Head-Change  Column Row Layer    Maximum-Flux-Residual          L2-NORM 
          0                 1           7            65    2     2       0.1539003765E+03      87   51    1         0.5305367793E+06      0.3146266021E+07
          0                 2           6            65    5     2      -0.5111174155E+02      65    5    2        -0.1393941787E+07      0.2795202497E+07
          0                 3           3            66    2     2       0.1398926507E+02      65    5    2        -0.2842738503E+05      0.4777854108E+05
          0                 4           3            66    2     2       0.2150860832E+01      65    4    2         0.1699064532E+04      0.2835924422E+04
          0                 5           2            66    2     2       0.3162619175E+00      65    4    2         0.1526803996E+03      0.3307521108E+03
          0                 6           2            66    2     2       0.4646624135E-01      66    2    2         0.2047703094E+02      0.4219581071E+02
          0                 7           2            66    2     2       0.6822556022E-02      66    2    2         0.3006281665E+01      0.5714945935E+01

    ------------------------------------------------
       NWT REQUIRED            7 OUTER ITERATIONS 
       AND A TOTAL OF         25 INNER ITERATIONS.
    ------------------------------------------------

 NO OUTPUT CONTROL FOR STRESS PERIOD   44   TIME STEP    1
 
 SOLVING FOR HEAD 
                                                   Max.-Head-Change                         Max.-Flux-Residual
  Residual-Control   Outer-Iter.   Inner-Iter.     Column Row Layer    Maximum-Head-Change  Column Row Layer    Maximum-Flux-Residual          L2-NORM 
          0                 1           7            92   52     1       0.1131440468E+02      84   52    1         0.4463499558E+06      0.2505794035E+07
          0                 2           5            83   51     1      -0.2276786788E+01      83   51    1        -0.1351601090E+06      0.3049244984E+06
          0                 3           2            70   46     1      -0.6914758721E-01      59   54    2        -0.7957517219E+03      0.1880189227E+04
          0                 4           2            85   51     2       0.2302170407E-02      79   48    1         0.3899620852E+02      0.6025204048E+02

    ------------------------------------------------
       NWT REQUIRED            4 OUTER ITERATIONS 
       AND A TOTAL OF         16 INNER ITERATIONS.
    ------------------------------------------------

 NO OUTPUT CONTROL FOR STRESS PERIOD   44   TIME STEP    2
 
 SOLVING FOR HEAD 
                                                   Max.-Head-Change                         Max.-Flux-Residual
  Residual-Control   Outer-Iter.   Inner-Iter.     Column Row Layer    Maximum-Head-Change  Column Row Layer    Maximum-Flux-Residual          L2-NORM 
          0                 1           7            92   52     1       0.1105338198E+02      84   52    1         0.4085892332E+06      0.2156554725E+07
          0                 2           5            84   52     1      -0.1536419176E+01      84   52    1        -0.8570826858E+05      0.2641915713E+06
          0                 3           2            62   43     1      -0.2362759340E-01      59   53    2         0.1269994800E+04      0.1749056697E+04
          0                 4           2            59   53     2       0.1160575553E-02      59   53    2         0.1170356120E+03      0.1193433648E+03

    ------------------------------------------------
       NWT REQUIRED            4 OUTER ITERATIONS 
       AND A TOTAL OF         16 INNER ITERATIONS.
    ------------------------------------------------

 NO OUTPUT CONTROL FOR STRESS PERIOD   44   TIME STEP    3
 
 SOLVING FOR HEAD 
                                                   Max.-Head-Change                         Max.-Flux-Residual
  Residual-Control   Outer-Iter.   Inner-Iter.     Column Row Layer    Maximum-Head-Change  Column Row Layer    Maximum-Flux-Residual          L2-NORM 
          0                 1           7            92   52     1       0.1023982001E+02      92   52    1         0.3671672582E+06      0.1908950151E+07
          0                 2           5            73   14     2       0.5069071630E+01      73   14    2         0.5198697716E+05      0.2106457935E+06
          0                 3           3            73   14     2      -0.4308600867E+00      73   14    2        -0.4797902020E+04      0.5054689160E+04
          0                 4           1            71   46     1      -0.5816040424E-03      61  108    1         0.6228068888E+01      0.9118950033E+01

    ------------------------------------------------
       NWT REQUIRED            4 OUTER ITERATIONS 
       AND A TOTAL OF         16 INNER ITERATIONS.
    ------------------------------------------------

 NO OUTPUT CONTROL FOR STRESS PERIOD   44   TIME STEP    4
 
 SOLVING FOR HEAD 
                                                   Max.-Head-Change                         Max.-Flux-Residual
  Residual-Control   Outer-Iter.   Inner-Iter.     Column Row Layer    Maximum-Head-Change  Column Row Layer    Maximum-Flux-Residual          L2-NORM 
          0                 1           7            92   52     1       0.9482962737E+01      92   52    1         0.3403860083E+06      0.1726772205E+07
          0                 2           5            71   19     3       0.1386697049E+01      62   93    1        -0.7489236653E+05      0.2005179408E+06
          0                 3           2            71   19     3      -0.1260627157E+00      65   45    1        -0.2627728105E+04      0.4007585665E+04
          0                 4           2            34   30     2       0.2048868495E-02      34   30    2         0.1278284070E+03      0.1322605321E+03

    ------------------------------------------------
       NWT REQUIRED            4 OUTER ITERATIONS 
       AND A TOTAL OF         16 INNER ITERATIONS.
    ------------------------------------------------

 NO OUTPUT CONTROL FOR STRESS PERIOD   44   TIME STEP    5
 
 SOLVING FOR HEAD 
                                                   Max.-Head-Change                         Max.-Flux-Residual
  Residual-Control   Outer-Iter.   Inner-Iter.     Column Row Layer    Maximum-Head-Change  Column Row Layer    Maximum-Flux-Residual          L2-NORM 
          0                 1           7            92   52     1       0.8792592199E+01      92   52    1         0.3154128437E+06      0.1591817571E+07
          0                 2           5            65   45     1      -0.1744296611E+01      65   45    1        -0.9993864525E+05      0.2076960297E+06
          0                 3           3            69   21     2       0.1845097208E+00      69   21    2         0.8152701848E+04      0.1043219019E+05
          0                 4           2            69   21     2       0.1659896548E-01      69   21    2         0.7333973170E+03      0.9299183854E+03
          0                 5           2            69   21     2       0.1492595565E-02      69   21    2         0.6593261077E+02      0.8361242346E+02

    ------------------------------------------------
       NWT REQUIRED            5 OUTER ITERATIONS 
       AND A TOTAL OF         19 INNER ITERATIONS.
    ------------------------------------------------

 NO OUTPUT CONTROL FOR STRESS PERIOD   44   TIME STEP    6
 
 SOLVING FOR HEAD 
                                                   Max.-Head-Change                         Max.-Flux-Residual
  Residual-Control   Outer-Iter.   Inner-Iter.     Column Row Layer    Maximum-Head-Change  Column Row Layer    Maximum-Flux-Residual          L2-NORM 
          0                 1           7            66  101     1      -0.8680189297E+01      92   52    1         0.2924487352E+06      0.1484536302E+07
          0                 2           5            69   21     2       0.4535246785E+01      69   21    2         0.4335424177E+05      0.1629475899E+06
          0                 3           3            69   21     2      -0.4122833480E+00      39   29    2         0.6792467250E+04      0.9464956770E+04
          0                 4           2            39   29     2       0.5248467471E-02      39   29    2         0.6113995951E+03      0.6891051717E+03

    ------------------------------------------------
       NWT REQUIRED            4 OUTER ITERATIONS 
       AND A TOTAL OF         17 INNER ITERATIONS.
    ------------------------------------------------

 NO OUTPUT CONTROL FOR STRESS PERIOD   44   TIME STEP    7
 
 SOLVING FOR HEAD 
                                                   Max.-Head-Change                         Max.-Flux-Residual
  Residual-Control   Outer-Iter.   Inner-Iter.     Column Row Layer    Maximum-Head-Change  Column Row Layer    Maximum-Flux-Residual          L2-NORM 
          0                 1           7            92   52     1       0.7572122026E+01      92   52    1         0.2713501918E+06      0.1402381494E+07
          0                 2           5            65   45     2       0.1915079340E+01      65   45    2         0.5313062859E+05      0.1666150657E+06
          0                 3           3            65   45     2      -0.1740557917E+00      65   45    2        -0.5288537088E+04      0.9592582472E+04
          0                 4           2            66   22     2       0.7334802547E-02      22   39    3        -0.6603815643E+03      0.8442443746E+03

    ------------------------------------------------
       NWT REQUIRED            4 OUTER ITERATIONS 
       AND A TOTAL OF         17 INNER ITERATIONS.
    ------------------------------------------------

 NO OUTPUT CONTROL FOR STRESS PERIOD   44   TIME STEP    8
 
 SOLVING FOR HEAD 
                                                   Max.-Head-Change                         Max.-Flux-Residual
  Residual-Control   Outer-Iter.   Inner-Iter.     Column Row Layer    Maximum-Head-Change  Column Row Layer    Maximum-Flux-Residual          L2-NORM 
          0                 1           7            92   52     1       0.7052161959E+01      92   52    1         0.2521891791E+06      0.1336282986E+07
          0                 2           5            62   91     2       0.1095634481E+01      62   91    2         0.3518088825E+05      0.1565685537E+06
          0                 3           2            62   91     2      -0.9987758220E-01      22   39    3         0.6373006169E+04      0.7778658110E+04
          0                 4           1            62  105     1       0.2271118956E-03      22   39    3         0.6361284260E+04      0.6361316063E+04
          0                 5           1            22   39     3       0.2125884629E-03      22   39    3         0.6350488204E+04      0.6350507580E+04
          0                 6           1            22   39     3       0.2122630105E-03      22   39    3         0.6340435174E+04      0.6340454237E+04
          0                 7           1            22   39     3       0.2119458026E-03      22   39    3         0.6330739757E+04      0.6330758749E+04
          0                 8           1            22   39     3       0.2116358252E-03      22   39    3         0.6321295190E+04      0.6321314143E+04
          0                 9           1            22   39     3       0.2113326531E-03      22   39    3         0.6312067279E+04      0.6312086203E+04
          0                10           1            22   39     3       0.2110360820E-03      22   39    3         0.6303042546E+04      0.6303061442E+04
                                                   Max.-Head-Change                         Max.-Flux-Residual
  Residual-Control   Outer-Iter.   Inner-Iter.     Column Row Layer    Maximum-Head-Change  Column Row Layer    Maximum-Flux-Residual          L2-NORM 
          0                11           1            22   39     3       0.2107459974E-03      22   39    3         0.6294214682E+04      0.6294233554E+04
          0                12           1            22   39     3       0.2104623282E-03      22   39    3         0.6285580256E+04      0.6285599104E+04
          0                13           1            22   39     3       0.2101850234E-03      22   39    3         0.6277137115E+04      0.6277155939E+04
          0                14           1            22   39     3       0.2099140406E-03      22   39    3         0.6268883716E+04      0.6268902518E+04
          0                15           4            22   39     3       0.1788889050E+00      22   39    3         0.6260789563E+04      0.6260808343E+04
          0                16           2            22   39     3      -0.1620189000E-01      22   39    3        -0.1263652734E+04      0.1540884882E+04
          0                17           1            22   38     3       0.4458433105E-03      22   39    3        -0.2779012127E+02      0.4647078087E+02

    ------------------------------------------------
       NWT REQUIRED           17 OUTER ITERATIONS 
       AND A TOTAL OF         32 INNER ITERATIONS.
    ------------------------------------------------

 NO OUTPUT CONTROL FOR STRESS PERIOD   44   TIME STEP    9
 
 SOLVING FOR HEAD 
                                                   Max.-Head-Change                         Max.-Flux-Residual
  Residual-Control   Outer-Iter.   Inner-Iter.     Column Row Layer    Maximum-Head-Change  Column Row Layer    Maximum-Flux-Residual          L2-NORM 
          0                 1           7            92   52     1       0.6590851443E+01      92   52    1         0.2349566546E+06      0.1280900171E+07
          0                 2           5            62   43     1      -0.6047764404E+00      92   52    1        -0.2379811230E+05      0.1329976149E+06
          0                 3           3            52  117     1      -0.3337375973E-01      44   34    1        -0.1299537851E+04      0.1876568371E+04
          0                 4           1            66    2     2      -0.1216319709E-03      52  117    1        -0.9470313489E+00      0.3152442267E+01

    ------------------------------------------------
       NWT REQUIRED            4 OUTER ITERATIONS 
       AND A TOTAL OF         16 INNER ITERATIONS.
    ------------------------------------------------

 NO OUTPUT CONTROL FOR STRESS PERIOD   44   TIME STEP   10
 
 SOLVING FOR HEAD 
                                                   Max.-Head-Change                         Max.-Flux-Residual
  Residual-Control   Outer-Iter.   Inner-Iter.     Column Row Layer    Maximum-Head-Change  Column Row Layer    Maximum-Flux-Residual          L2-NORM 
          0                 1           7            92   52     1       0.6184223236E+01      92   52    1         0.2196429976E+06      0.1234675032E+07
          0                 2           5            92   52     1      -0.5660133355E+00      44   34    1        -0.2258612542E+05      0.1315515948E+06
          0                 3           3            63   92     2       0.1180790695E+00      63   92    2         0.7687280041E+04      0.9505191789E+04
          0                 4           2            63   92     2       0.1060823379E-01      63   92    2         0.6914805744E+03      0.8501910725E+03
          0                 5           2            63   92     2       0.9553763118E-03      63   92    2         0.6223308531E+02      0.7761827572E+02

    ------------------------------------------------
       NWT REQUIRED            5 OUTER ITERATIONS 
       AND A TOTAL OF         19 INNER ITERATIONS.
    ------------------------------------------------

 NO OUTPUT CONTROL FOR STRESS PERIOD   44   TIME STEP   11
 
 SOLVING FOR HEAD 
                                                   Max.-Head-Change                         Max.-Flux-Residual
  Residual-Control   Outer-Iter.   Inner-Iter.     Column Row Layer    Maximum-Head-Change  Column Row Layer    Maximum-Flux-Residual          L2-NORM 
          0                 1           7            92   52     1       0.5828417597E+01      92   52    1         0.2061465782E+06      0.1195171368E+07
          0                 2           6            81   52     2       0.1363485020E+01      60   62    1        -0.3648713504E+05      0.1347337929E+06
          0                 3           2            81   52     2      -0.1239351380E+00      45   37    2         0.2243680768E+04      0.3752845747E+04
          0                 4           2            45   37     2       0.2412733954E-02      45   37    2         0.2028133916E+03      0.2030167549E+03

    ------------------------------------------------
       NWT REQUIRED            4 OUTER ITERATIONS 
       AND A TOTAL OF         17 INNER ITERATIONS.
    ------------------------------------------------

 OUTPUT CONTROL FOR STRESS PERIOD   44   TIME STEP   12
    SAVE BUDGET
 UBDSV1 SAVING "         STORAGE" ON UNIT  39 AT TIME STEP 12, STRESS PERIOD  44
 UBDSV2 SAVING "   CONSTANT HEAD" ON UNIT  39 AT TIME STEP 12, STRESS PERIOD  44
 UBDSV1 SAVING "FLOW RIGHT FACE " ON UNIT  39 AT TIME STEP 12, STRESS PERIOD  44
 UBDSV1 SAVING "FLOW FRONT FACE " ON UNIT  39 AT TIME STEP 12, STRESS PERIOD  44
 UBDSV1 SAVING "FLOW LOWER FACE " ON UNIT  39 AT TIME STEP 12, STRESS PERIOD  44
 UBDSV4 SAVING "           WELLS" ON UNIT  39 AT TIME STEP 12, STRESS PERIOD  44
 UBDSV3 SAVING "              ET" ON UNIT  39 AT TIME STEP 12, STRESS PERIOD  44
 UBDSV3 SAVING "        RECHARGE" ON UNIT  39 AT TIME STEP 12, STRESS PERIOD  44
1
  VOLUMETRIC BUDGET FOR ENTIRE MODEL AT END OF TIME STEP   12, STRESS PERIOD  44
  ------------------------------------------------------------------------------

     CUMULATIVE VOLUMES      L**3       RATES FOR THIS TIME STEP      L**3/T
     ------------------                 ------------------------

           IN:                                      IN:
           ---                                      ---
             STORAGE =286118641664.0000               STORAGE =     6181875.5000
       CONSTANT HEAD = 25815789568.0000         CONSTANT HEAD =     2000203.1250
               WELLS = 19696814080.0000                 WELLS =     1225642.0000
                  ET =           0.0000                    ET =           0.0000
            RECHARGE =314783006720.0000              RECHARGE =    64791012.0000

            TOTAL IN =646414204928.0000              TOTAL IN =    74198728.0000

          OUT:                                     OUT:
          ----                                     ----
             STORAGE = 51152719872.0000               STORAGE =    35291584.0000
       CONSTANT HEAD = 54808944640.0000         CONSTANT HEAD =     2735044.0000
               WELLS =526078017536.0000                 WELLS =    32046392.0000
                  ET = 14374349824.0000                    ET =     4125697.0000
            RECHARGE =           0.0000              RECHARGE =           0.0000

           TOTAL OUT =646414073856.0000             TOTAL OUT =    74198720.0000

            IN - OUT =      131072.0000              IN - OUT =           8.0000

 PERCENT DISCREPANCY =           0.00     PERCENT DISCREPANCY =           0.00






         TIME SUMMARY AT END OF TIME STEP   12 IN STRESS PERIOD   44
                    SECONDS     MINUTES      HOURS       DAYS        YEARS
                    -----------------------------------------------------------
   TIME STEP LENGTH 2.62800E+06  43800.      730.00      30.417     8.32763E-02
 STRESS PERIOD TIME 3.15360E+07 5.25600E+05  8760.0      365.00     0.99932    
         TOTAL TIME 1.38854E+09 2.31423E+07 3.85705E+05  16071.      44.000    
1
1
                            STRESS PERIOD NO.   45, LENGTH =   366.0000    
                            -----------------------------------------------

                              NUMBER OF TIME STEPS =    12

                               MULTIPLIER FOR DELT =     1.000

                            INITIAL TIME STEP SIZE =   30.50000    

   1713 WELLS

 REUSING SURF FROM LAST STRESS PERIOD

 REUSING EVTR FROM LAST STRESS PERIOD

 REUSING EXDP FROM LAST STRESS PERIOD



                           RECHARGE
 READING ON UNIT   16 WITH FORMAT: (15F5.0)            


     63 TIME-VARIANT SPECIFIED-HEAD CELLS
 
 SOLVING FOR HEAD 
                                                   Max.-Head-Change                         Max.-Flux-Residual
  Residual-Control   Outer-Iter.   Inner-Iter.     Column Row Layer    Maximum-Head-Change  Column Row Layer    Maximum-Flux-Residual          L2-NORM 
          0                 1           7            62   96     3       0.6828244696E+02      43   33    2        -0.3720088429E+06      0.2397011393E+07
          0                 2           6            61   96     3      -0.6103073546E+01      19   38    2        -0.9923730825E+05      0.2623284542E+06
          0                 3           3            19   37     2       0.2052383306E+00      17   15    1         0.3076635604E+04      0.6450854355E+04
          0                 4           2            19   37     2      -0.1637155130E-01      32   29    2         0.2221739560E+03      0.2770940345E+03
          0                 5           2            19   39     2       0.1534462815E-02      32   29    2         0.2011160982E+02      0.2419880690E+02

    ------------------------------------------------
       NWT REQUIRED            5 OUTER ITERATIONS 
       AND A TOTAL OF         20 INNER ITERATIONS.
    ------------------------------------------------

 NO OUTPUT CONTROL FOR STRESS PERIOD   45   TIME STEP    1
 
 SOLVING FOR HEAD 
                                                   Max.-Head-Change                         Max.-Flux-Residual
  Residual-Control   Outer-Iter.   Inner-Iter.     Column Row Layer    Maximum-Head-Change  Column Row Layer    Maximum-Flux-Residual          L2-NORM 
          0                 1           7            23   43     2      -0.1693317916E+02      67   47    1        -0.2598950226E+06      0.1441634656E+07
          0                 2           5            55   37     1      -0.2745699708E+01      75   48    1         0.4251552387E+05      0.1501026023E+06
          0                 3           3            55   37     1       0.2332548389E+00      32   29    2        -0.1605798286E+04      0.2228890741E+04
          0                 4           2            55   37     1       0.1497277609E-02      60  106    1        -0.8903047681E+01      0.1570749340E+02

    ------------------------------------------------
       NWT REQUIRED            4 OUTER ITERATIONS 
       AND A TOTAL OF         17 INNER ITERATIONS.
    ------------------------------------------------

 NO OUTPUT CONTROL FOR STRESS PERIOD   45   TIME STEP    2
 
 SOLVING FOR HEAD 
                                                   Max.-Head-Change                         Max.-Flux-Residual
  Residual-Control   Outer-Iter.   Inner-Iter.     Column Row Layer    Maximum-Head-Change  Column Row Layer    Maximum-Flux-Residual          L2-NORM 
          0                 1           7            56   99     3      -0.7674827987E+01      75   48    1        -0.2196435782E+06      0.1125119796E+07
          0                 2           5            62   43     2       0.7533455062E+00      75   48    1         0.2177920416E+05      0.1143036351E+06
          0                 3           2            62   43     2      -0.6848852811E-01      32   26    1         0.1392669145E+04      0.1618275475E+04
          0                 4           1            66    2     2       0.2036589555E-03      59  105    1         0.1620184177E+02      0.1825397329E+02

    ------------------------------------------------
       NWT REQUIRED            4 OUTER ITERATIONS 
       AND A TOTAL OF         15 INNER ITERATIONS.
    ------------------------------------------------

 NO OUTPUT CONTROL FOR STRESS PERIOD   45   TIME STEP    3
 
 SOLVING FOR HEAD 
                                                   Max.-Head-Change                         Max.-Flux-Residual
  Residual-Control   Outer-Iter.   Inner-Iter.     Column Row Layer    Maximum-Head-Change  Column Row Layer    Maximum-Flux-Residual          L2-NORM 
          0                 1           7            56   99     3      -0.6324804147E+01      76   48    1        -0.1899765743E+06      0.9369297563E+06
          0                 2           5            65    2     2      -0.3940589991E+02      76   48    1         0.1881452598E+05      0.9728658991E+05
          0                 3           3            65    2     2       0.1253533493E+01      33   26    1        -0.3646692274E+04      0.5151581798E+04
          0                 4           2            65    2     2       0.7272904320E-01      33   26    1        -0.3289515810E+03      0.4402970350E+03
          0                 5           2            65    2     2       0.4218543007E-02      33   26    1        -0.2964115824E+02      0.3998727784E+02

    ------------------------------------------------
       NWT REQUIRED            5 OUTER ITERATIONS 
       AND A TOTAL OF         19 INNER ITERATIONS.
    ------------------------------------------------

 NO OUTPUT CONTROL FOR STRESS PERIOD   45   TIME STEP    4
 
 SOLVING FOR HEAD 
                                                   Max.-Head-Change                         Max.-Flux-Residual
  Residual-Control   Outer-Iter.   Inner-Iter.     Column Row Layer    Maximum-Head-Change  Column Row Layer    Maximum-Flux-Residual          L2-NORM 
          0                 1           6            65    2     2      -0.6232481812E+02      76   48    1        -0.1727260573E+06      0.8113414454E+06
          0                 2           5            65    2     2       0.2995372591E+01      62   94    1        -0.4472429351E+05      0.9672355937E+05
          0                 3           3            65    2     2       0.1630852450E+00      43   33    1         0.2153080638E+04      0.2519808713E+04
          0                 4           2            65    2     2       0.8911915015E-02      58   99    3        -0.8384528399E+01      0.1339653596E+02

    ------------------------------------------------
       NWT REQUIRED            4 OUTER ITERATIONS 
       AND A TOTAL OF         16 INNER ITERATIONS.
    ------------------------------------------------

 NO OUTPUT CONTROL FOR STRESS PERIOD   45   TIME STEP    5
 
 SOLVING FOR HEAD 
                                                   Max.-Head-Change                         Max.-Flux-Residual
  Residual-Control   Outer-Iter.   Inner-Iter.     Column Row Layer    Maximum-Head-Change  Column Row Layer    Maximum-Flux-Residual          L2-NORM 
          0                 1           7            56   99     3      -0.4337589336E+01      76   48    1        -0.1571113663E+06      0.7216061336E+06
          0                 2           5            66    1     2      -0.3148567644E+02      76   48    1         0.3934058900E+05      0.8947099072E+05
          0                 3           2            66    1     2       0.8593499064E+00      61   96    2         0.2363943976E+04      0.2402480835E+04
          0                 4           2            66    1     2       0.5429664599E-01      61   96    2         0.2131195226E+03      0.2144033472E+03
          0                 5           2            66    1     2       0.3426202450E-02      61   96    2         0.1916292842E+02      0.1922884012E+02

    ------------------------------------------------
       NWT REQUIRED            5 OUTER ITERATIONS 
       AND A TOTAL OF         18 INNER ITERATIONS.
    ------------------------------------------------

 NO OUTPUT CONTROL FOR STRESS PERIOD   45   TIME STEP    6
 
 SOLVING FOR HEAD 
                                                   Max.-Head-Change                         Max.-Flux-Residual
  Residual-Control   Outer-Iter.   Inner-Iter.     Column Row Layer    Maximum-Head-Change  Column Row Layer    Maximum-Flux-Residual          L2-NORM 
          0                 1           7            66    1     2      -0.3561515483E+02      76   48    1        -0.1271781623E+06      0.6515371273E+06
          0                 2           5            66    1     2       0.9859481219E+00      62   94    2         0.1680626410E+05      0.6883968241E+05
          0                 3           2            66    1     2       0.6183396745E-01      62   94    2        -0.1653208243E+04      0.2285633190E+04
          0                 4           2            66    1     2       0.3871779227E-02      43   34    1        -0.7383257926E+01      0.8368975688E+01

    ------------------------------------------------
       NWT REQUIRED            4 OUTER ITERATIONS 
       AND A TOTAL OF         16 INNER ITERATIONS.
    ------------------------------------------------

 NO OUTPUT CONTROL FOR STRESS PERIOD   45   TIME STEP    7
 
 SOLVING FOR HEAD 
                                                   Max.-Head-Change                         Max.-Flux-Residual
  Residual-Control   Outer-Iter.   Inner-Iter.     Column Row Layer    Maximum-Head-Change  Column Row Layer    Maximum-Flux-Residual          L2-NORM 
          0                 1           7            56   99     3      -0.3007942830E+01      76   48    1        -0.1002304609E+06      0.5997680452E+06
          0                 2           5            78   54     1      -0.2872279896E+00      61   60    1        -0.1255376621E+05      0.6200130636E+05
          0                 3           2            78   54     1       0.2190068710E-01      43   34    1        -0.3991539203E+03      0.4685144110E+03
          0                 4           1            78   54     1       0.3273221608E-03      34   27    1        -0.2064165501E+02      0.2368431075E+02

    ------------------------------------------------
       NWT REQUIRED            4 OUTER ITERATIONS 
       AND A TOTAL OF         15 INNER ITERATIONS.
    ------------------------------------------------

 NO OUTPUT CONTROL FOR STRESS PERIOD   45   TIME STEP    8
 
 SOLVING FOR HEAD 
                                                   Max.-Head-Change                         Max.-Flux-Residual
  Residual-Control   Outer-Iter.   Inner-Iter.     Column Row Layer    Maximum-Head-Change  Column Row Layer    Maximum-Flux-Residual          L2-NORM 
          0                 1           6            78   54     1      -0.4121456649E+01      69   47    1        -0.8696607687E+05      0.5598360283E+06
          0                 2           5            57   84     2      -0.1356413153E+01      69   47    1         0.8603741869E+04      0.5685780978E+05
          0                 3           2            57   84     2       0.1158721385E+00      43   34    1        -0.6926753129E+03      0.9877508120E+03
          0                 4           1            77   57     1       0.6642101426E-03      43   34    1         0.5577994108E+01      0.1027767600E+02

    ------------------------------------------------
       NWT REQUIRED            4 OUTER ITERATIONS 
       AND A TOTAL OF         14 INNER ITERATIONS.
    ------------------------------------------------

 NO OUTPUT CONTROL FOR STRESS PERIOD   45   TIME STEP    9
 
 SOLVING FOR HEAD 
                                                   Max.-Head-Change                         Max.-Flux-Residual
  Residual-Control   Outer-Iter.   Inner-Iter.     Column Row Layer    Maximum-Head-Change  Column Row Layer    Maximum-Flux-Residual          L2-NORM 
          0                 1           6            55  100     3      -0.2375810762E+01      69   47    1        -0.7880422620E+05      0.5286198898E+06
          0                 2           5            74   55     1      -0.7525398275E+00      60   63    1        -0.2157656244E+05      0.5836508164E+05
          0                 3           2            74   55     1       0.6582123888E-01      43   34    1        -0.9040269933E+03      0.9978603618E+03
          0                 4           1            79   56     1       0.9100789924E-03      43   34    1         0.3063331699E+02      0.3235820441E+02

    ------------------------------------------------
       NWT REQUIRED            4 OUTER ITERATIONS 
       AND A TOTAL OF         14 INNER ITERATIONS.
    ------------------------------------------------

 NO OUTPUT CONTROL FOR STRESS PERIOD   45   TIME STEP   10
 
 SOLVING FOR HEAD 
                                                   Max.-Head-Change                         Max.-Flux-Residual
  Residual-Control   Outer-Iter.   Inner-Iter.     Column Row Layer    Maximum-Head-Change  Column Row Layer    Maximum-Flux-Residual          L2-NORM 
          0                 1           6            79   56     1      -0.3546991257E+01      91   51    1         0.7272472627E+05      0.5033718852E+06
          0                 2           5            65    6     2      -0.1193870663E+02      91   51    1        -0.7307366706E+04      0.5097724946E+05
          0                 3           2            65    6     2       0.6027566892E+00      43   34    1        -0.1039544572E+04      0.1295252760E+04
          0                 4           2            65    6     2       0.2456384202E-01      43   34    1         0.5576480246E+02      0.5899370976E+02
          0                 5           2            65    6     2       0.9934208360E-03      43   34    1         0.3040373087E+01      0.3697895589E+01

    ------------------------------------------------
       NWT REQUIRED            5 OUTER ITERATIONS 
       AND A TOTAL OF         17 INNER ITERATIONS.
    ------------------------------------------------

 NO OUTPUT CONTROL FOR STRESS PERIOD   45   TIME STEP   11
 
 SOLVING FOR HEAD 
                                                   Max.-Head-Change                         Max.-Flux-Residual
  Residual-Control   Outer-Iter.   Inner-Iter.     Column Row Layer    Maximum-Head-Change  Column Row Layer    Maximum-Flux-Residual          L2-NORM 
          0                 1           6            65    6     2      -0.2002145210E+02      91   51    1         0.6973007256E+05      0.4834564383E+06
          0                 2           5            65    6     2       0.2408235520E+01      91   51    1        -0.7003464662E+04      0.4887068896E+05
          0                 3           3            65    6     2       0.8816378405E-01      43   34    1        -0.1119206159E+04      0.1167791835E+04
          0                 4           2            65    6     2       0.3261592791E-02      43   34    1         0.8181578290E+02      0.8187975136E+02

    ------------------------------------------------
       NWT REQUIRED            4 OUTER ITERATIONS 
       AND A TOTAL OF         16 INNER ITERATIONS.
    ------------------------------------------------

 OUTPUT CONTROL FOR STRESS PERIOD   45   TIME STEP   12
    SAVE BUDGET
 UBDSV1 SAVING "         STORAGE" ON UNIT  39 AT TIME STEP 12, STRESS PERIOD  45
 UBDSV2 SAVING "   CONSTANT HEAD" ON UNIT  39 AT TIME STEP 12, STRESS PERIOD  45
 UBDSV1 SAVING "FLOW RIGHT FACE " ON UNIT  39 AT TIME STEP 12, STRESS PERIOD  45
 UBDSV1 SAVING "FLOW FRONT FACE " ON UNIT  39 AT TIME STEP 12, STRESS PERIOD  45
 UBDSV1 SAVING "FLOW LOWER FACE " ON UNIT  39 AT TIME STEP 12, STRESS PERIOD  45
 UBDSV4 SAVING "           WELLS" ON UNIT  39 AT TIME STEP 12, STRESS PERIOD  45
 UBDSV3 SAVING "              ET" ON UNIT  39 AT TIME STEP 12, STRESS PERIOD  45
 UBDSV3 SAVING "        RECHARGE" ON UNIT  39 AT TIME STEP 12, STRESS PERIOD  45
1
  VOLUMETRIC BUDGET FOR ENTIRE MODEL AT END OF TIME STEP   12, STRESS PERIOD  45
  ------------------------------------------------------------------------------

     CUMULATIVE VOLUMES      L**3       RATES FOR THIS TIME STEP      L**3/T
     ------------------                 ------------------------

           IN:                                      IN:
           ---                                      ---
             STORAGE =291636051968.0000               STORAGE =    11741831.0000
       CONSTANT HEAD = 26526316544.0000         CONSTANT HEAD =     1910768.7500
               WELLS = 20145399808.0000                 WELLS =     1225642.0000
                  ET =           0.0000                    ET =           0.0000
            RECHARGE =326053363712.0000              RECHARGE =    30792824.0000

            TOTAL IN =664361107456.0000              TOTAL IN =    45671068.0000

          OUT:                                     OUT:
          ----                                     ----
             STORAGE = 55287799808.0000               STORAGE =     8223375.5000
       CONSTANT HEAD = 55784079360.0000         CONSTANT HEAD =     2642617.0000
               WELLS =537596002304.0000                 WELLS =    31459914.0000
                  ET = 15692783616.0000                    ET =     3345161.7500
            RECHARGE =           0.0000              RECHARGE =           0.0000

           TOTAL OUT =664360648704.0000             TOTAL OUT =    45671068.0000

            IN - OUT =      458752.0000              IN - OUT =           0.0000

 PERCENT DISCREPANCY =           0.00     PERCENT DISCREPANCY =           0.00






         TIME SUMMARY AT END OF TIME STEP   12 IN STRESS PERIOD   45
                    SECONDS     MINUTES      HOURS       DAYS        YEARS
                    -----------------------------------------------------------
   TIME STEP LENGTH 2.63520E+06  43920.      732.00      30.500     8.35044E-02
 STRESS PERIOD TIME 3.16224E+07 5.27040E+05  8784.0      366.00      1.0021    
         TOTAL TIME 1.42016E+09 2.36694E+07 3.94489E+05  16437.      45.002    
1
1
                            STRESS PERIOD NO.   46, LENGTH =   365.0000    
                            -----------------------------------------------

                              NUMBER OF TIME STEPS =    12

                               MULTIPLIER FOR DELT =     1.000

                            INITIAL TIME STEP SIZE =   30.41667    

   1879 WELLS

 REUSING SURF FROM LAST STRESS PERIOD

 REUSING EVTR FROM LAST STRESS PERIOD

 REUSING EXDP FROM LAST STRESS PERIOD



                           RECHARGE
 READING ON UNIT   16 WITH FORMAT: (15F5.0)            


     63 TIME-VARIANT SPECIFIED-HEAD CELLS
 
 SOLVING FOR HEAD 
                                                   Max.-Head-Change                         Max.-Flux-Residual
  Residual-Control   Outer-Iter.   Inner-Iter.     Column Row Layer    Maximum-Head-Change  Column Row Layer    Maximum-Flux-Residual          L2-NORM 
          0                 1           7            84   52     3      -0.7661326188E+02      53  118    2        -0.2597229273E+06      0.1207753259E+07
          0                 2           5            84   52     3       0.6974258037E+01      23   43    2        -0.1339287338E+06      0.1808591135E+06
          0                 3           3            22   43     2       0.7079445655E+00      23   43    2        -0.4984133183E+04      0.5722033151E+04
          0                 4           2            22   43     2       0.7692099751E-01      23   42    2         0.1151221115E+03      0.2192409192E+03
          0                 5           2            22   43     2       0.7773304081E-02      22   43    2         0.1152008417E+02      0.2096264680E+02

    ------------------------------------------------
       NWT REQUIRED            5 OUTER ITERATIONS 
       AND A TOTAL OF         19 INNER ITERATIONS.
    ------------------------------------------------

 NO OUTPUT CONTROL FOR STRESS PERIOD   46   TIME STEP    1
 
 SOLVING FOR HEAD 
                                                   Max.-Head-Change                         Max.-Flux-Residual
  Residual-Control   Outer-Iter.   Inner-Iter.     Column Row Layer    Maximum-Head-Change  Column Row Layer    Maximum-Flux-Residual          L2-NORM 
          0                 1           7            84   52     3      -0.1317867977E+02      77   48    1        -0.1889404489E+06      0.8328021296E+06
          0                 2           5            65    3     2      -0.1621528914E+02      53  118    1         0.2083679442E+05      0.8635981536E+05
          0                 3           2            65    3     2       0.8689717839E+00      55  100    3        -0.4048537727E+04      0.4560334536E+04
          0                 4           2            65    3     2       0.4262517474E-01      55  100    3         0.8544992269E+03      0.8670991146E+03
          0                 5           2            55  100     3      -0.3028757457E-02      55  100    3        -0.9838292432E+02      0.9925480746E+02

    ------------------------------------------------
       NWT REQUIRED            5 OUTER ITERATIONS 
       AND A TOTAL OF         18 INNER ITERATIONS.
    ------------------------------------------------

 NO OUTPUT CONTROL FOR STRESS PERIOD   46   TIME STEP    2
 
 SOLVING FOR HEAD 
                                                   Max.-Head-Change                         Max.-Flux-Residual
  Residual-Control   Outer-Iter.   Inner-Iter.     Column Row Layer    Maximum-Head-Change  Column Row Layer    Maximum-Flux-Residual          L2-NORM 
          0                 1           7            65    3     2      -0.1136069627E+02      77   48    1        -0.1676713888E+06      0.7085150493E+06
          0                 2           5            65    5     2      -0.3149197764E+02      77   48    1         0.1652645393E+05      0.7387577382E+05
          0                 3           3            65    5     2       0.3615998283E+01      55  100    3        -0.7423687551E+04      0.7924987399E+04
          0                 4           2            65    5     2       0.1533202677E+00      55  100    3         0.2518973061E+04      0.2523100097E+04
          0                 5           2            55  100     3      -0.1809783002E-01      55  100    3        -0.5869081136E+03      0.5869937006E+03
          0                 6           2            55  100     3       0.1993766564E-02      55  100    3         0.7082128632E+02      0.7082622179E+02

    ------------------------------------------------
       NWT REQUIRED            6 OUTER ITERATIONS 
       AND A TOTAL OF         21 INNER ITERATIONS.
    ------------------------------------------------

 NO OUTPUT CONTROL FOR STRESS PERIOD   46   TIME STEP    3
 
 SOLVING FOR HEAD 
                                                   Max.-Head-Change                         Max.-Flux-Residual
  Residual-Control   Outer-Iter.   Inner-Iter.     Column Row Layer    Maximum-Head-Change  Column Row Layer    Maximum-Flux-Residual          L2-NORM 
          0                 1           7            55   99     3      -0.5470947574E+01      77   48    1        -0.1495021037E+06      0.6337983429E+06
          0                 2           5            77   48     1       0.6554408039E+00      77   48    1         0.3553269778E+05      0.8142187913E+05
          0                 3           2            55  100     3      -0.2659503735E+00      55  100    3        -0.7158418107E+04      0.7297581418E+04
          0                 4           2            55  100     3       0.9774146003E-01      55  100    3         0.2887658325E+04      0.2890479700E+04
          0                 5           2            55  100     3      -0.2550722163E-01      55  100    3        -0.8262275563E+03      0.8263112554E+03
          0                 6           2            55  100     3       0.3965441559E-02      55  100    3         0.1406639692E+03      0.1406685095E+03

    ------------------------------------------------
       NWT REQUIRED            6 OUTER ITERATIONS 
       AND A TOTAL OF         20 INNER ITERATIONS.
    ------------------------------------------------

 NO OUTPUT CONTROL FOR STRESS PERIOD   46   TIME STEP    4
 
 SOLVING FOR HEAD 
                                                   Max.-Head-Change                         Max.-Flux-Residual
  Residual-Control   Outer-Iter.   Inner-Iter.     Column Row Layer    Maximum-Head-Change  Column Row Layer    Maximum-Flux-Residual          L2-NORM 
          0                 1           7            55   99     3      -0.5211955424E+01      85   52    1        -0.1207038782E+06      0.5771258113E+06
          0                 2           5            55   99     3       0.4638753502E+00      77   48    1         0.1191805448E+05      0.5882004108E+05
          0                 3           2            55  100     3      -0.2120434580E+00      55  100    3        -0.5701874339E+04      0.5714127234E+04
          0                 4           2            55  100     3       0.8375124664E-01      55  100    3         0.2471915837E+04      0.2471929126E+04
          0                 5           2            55  100     3      -0.2365797150E-01      55  100    3        -0.7656026064E+03      0.7656065314E+03
          0                 6           2            55  100     3       0.4171138494E-02      55  100    3         0.1478126450E+03      0.1478133900E+03

    ------------------------------------------------
       NWT REQUIRED            6 OUTER ITERATIONS 
       AND A TOTAL OF         20 INNER ITERATIONS.
    ------------------------------------------------

 NO OUTPUT CONTROL FOR STRESS PERIOD   46   TIME STEP    5
 
 SOLVING FOR HEAD 
                                                   Max.-Head-Change                         Max.-Flux-Residual
  Residual-Control   Outer-Iter.   Inner-Iter.     Column Row Layer    Maximum-Head-Change  Column Row Layer    Maximum-Flux-Residual          L2-NORM 
          0                 1           7            55   99     3      -0.4980102472E+01      55   99    3        -0.1088547741E+06      0.5358253732E+06
          0                 2           5            56   83     2      -0.4137903910E+01      56   83    2        -0.1410061044E+05      0.5653130025E+05
          0                 3           2            56   83     2       0.3495649835E+00      55  100    3        -0.4303280330E+04      0.4509519417E+04
          0                 4           2            55  100     3       0.6526251330E-01      55  100    3         0.1924632441E+04      0.1924659538E+04
          0                 5           2            55  100     3      -0.1905594455E-01      55  100    3        -0.6161672592E+03      0.6161702859E+03
          0                 6           2            55  100     3       0.3539196539E-02      55  100    3         0.1253136368E+03      0.1253142051E+03

    ------------------------------------------------
       NWT REQUIRED            6 OUTER ITERATIONS 
       AND A TOTAL OF         20 INNER ITERATIONS.
    ------------------------------------------------

 NO OUTPUT CONTROL FOR STRESS PERIOD   46   TIME STEP    6
 
 SOLVING FOR HEAD 
                                                   Max.-Head-Change                         Max.-Flux-Residual
  Residual-Control   Outer-Iter.   Inner-Iter.     Column Row Layer    Maximum-Head-Change  Column Row Layer    Maximum-Flux-Residual          L2-NORM 
          0                 1           9            23   44     2      -0.5833801515E+01      55   99    3        -0.1040101253E+06      0.5058318429E+06
          0                 2           5            23   44     2       0.5238401140E+00      55   99    3         0.1024466734E+05      0.5088516298E+05
          0                 3           2            55  100     3      -0.1206728424E+00      55  100    3        -0.3239729940E+04      0.3245061588E+04
          0                 4           2            55  100     3       0.4982353187E-01      55  100    3         0.1468240506E+04      0.1468248209E+04
          0                 5           2            55  100     3      -0.1474751242E-01      55  100    3        -0.4765045265E+03      0.4765067907E+03
          0                 6           2            55  100     3       0.2798595715E-02      55  100    3         0.9901684327E+02      0.9901727039E+02

    ------------------------------------------------
       NWT REQUIRED            6 OUTER ITERATIONS 
       AND A TOTAL OF         22 INNER ITERATIONS.
    ------------------------------------------------

 NO OUTPUT CONTROL FOR STRESS PERIOD   46   TIME STEP    7
 
 SOLVING FOR HEAD 
                                                   Max.-Head-Change                         Max.-Flux-Residual
  Residual-Control   Outer-Iter.   Inner-Iter.     Column Row Layer    Maximum-Head-Change  Column Row Layer    Maximum-Flux-Residual          L2-NORM 
          0                 1           9            55   99     3      -0.4585483408E+01      55   99    3        -0.9966430122E+05      0.4830386550E+06
          0                 2           5            55   99     3       0.4075451564E+00      55   99    3         0.9822391898E+04      0.4843871653E+05
          0                 3           2            55  100     3      -0.9239977232E-01      55  100    3        -0.2478966935E+04      0.2479231792E+04
          0                 4           2            55  100     3       0.3833733174E-01      55  100    3         0.1128991098E+04      0.1128996618E+04
          0                 5           2            55  100     3      -0.1140105397E-01      55  100    3        -0.3681274040E+03      0.3681291457E+03
          0                 6           2            55  100     3       0.2180220314E-02      55  100    3         0.7708558470E+02      0.7708590732E+02

    ------------------------------------------------
       NWT REQUIRED            6 OUTER ITERATIONS 
       AND A TOTAL OF         22 INNER ITERATIONS.
    ------------------------------------------------

 NO OUTPUT CONTROL FOR STRESS PERIOD   46   TIME STEP    8
 
 SOLVING FOR HEAD 
                                                   Max.-Head-Change                         Max.-Flux-Residual
  Residual-Control   Outer-Iter.   Inner-Iter.     Column Row Layer    Maximum-Head-Change  Column Row Layer    Maximum-Flux-Residual          L2-NORM 
          0                 1           9            55   99     3      -0.4417477964E+01      55   99    3        -0.9575944713E+05      0.4652549424E+06
          0                 2           5            84   86     2      -0.2143675852E+01      61   58    1        -0.1067180967E+05      0.4825727863E+05
          0                 3           2            55  100     3      -0.7220632547E-01      55  100    3        -0.1935967878E+04      0.1945351612E+04
          0                 4           2            55  100     3       0.2998586759E-01      55  100    3         0.8824972407E+03      0.8826682316E+03
          0                 5           2            55  100     3      -0.8921106420E-02      55  100    3        -0.2878625704E+03      0.2878684917E+03

    ------------------------------------------------
       NWT REQUIRED            5 OUTER ITERATIONS 
       AND A TOTAL OF         20 INNER ITERATIONS.
    ------------------------------------------------

 NO OUTPUT CONTROL FOR STRESS PERIOD   46   TIME STEP    9
 
 SOLVING FOR HEAD 
                                                   Max.-Head-Change                         Max.-Flux-Residual
  Residual-Control   Outer-Iter.   Inner-Iter.     Column Row Layer    Maximum-Head-Change  Column Row Layer    Maximum-Flux-Residual          L2-NORM 
          0                 1           9            55   99     3      -0.4266115533E+01      55   99    3        -0.9224563352E+05      0.4507513218E+06
          0                 2           5            55   99     3       0.3791928588E+00      61   58    2         0.9165121234E+04      0.4732911234E+05
          0                 3           2            55  100     3      -0.5696801382E-01      55  100    3        -0.1526657304E+04      0.1783044728E+04
          0                 4           2            55  100     3       0.2362684759E-01      55  100    3         0.6949375585E+03      0.6949430070E+03
          0                 5           2            55  100     3      -0.7017373936E-02      55  100    3        -0.2262984533E+03      0.2262998542E+03

    ------------------------------------------------
       NWT REQUIRED            5 OUTER ITERATIONS 
       AND A TOTAL OF         20 INNER ITERATIONS.
    ------------------------------------------------

 NO OUTPUT CONTROL FOR STRESS PERIOD   46   TIME STEP   10
 
 SOLVING FOR HEAD 
                                                   Max.-Head-Change                         Max.-Flux-Residual
  Residual-Control   Outer-Iter.   Inner-Iter.     Column Row Layer    Maximum-Head-Change  Column Row Layer    Maximum-Flux-Residual          L2-NORM 
          0                 1           7            55   99     3      -0.4129607655E+01      55   99    3        -0.8907942092E+05      0.4388674417E+06
          0                 2           5            55   99     3       0.3671099418E+00      55   99    3         0.8792203895E+04      0.4430799017E+05
          0                 3           2            55  100     3      -0.4562548246E-01      55  100    3        -0.1221845789E+04      0.1362801299E+04
          0                 4           2            55  100     3       0.1889111961E-01      55  100    3         0.5553330387E+03      0.5576582433E+03
          0                 5           2            55  100     3      -0.5596228387E-02      55  100    3        -0.1803673647E+03      0.1804262311E+03

    ------------------------------------------------
       NWT REQUIRED            5 OUTER ITERATIONS 
       AND A TOTAL OF         18 INNER ITERATIONS.
    ------------------------------------------------

 NO OUTPUT CONTROL FOR STRESS PERIOD   46   TIME STEP   11
 
 SOLVING FOR HEAD 
                                                   Max.-Head-Change                         Max.-Flux-Residual
  Residual-Control   Outer-Iter.   Inner-Iter.     Column Row Layer    Maximum-Head-Change  Column Row Layer    Maximum-Flux-Residual          L2-NORM 
          0                 1           6            55   99     3      -0.4006422563E+01      55   99    3        -0.8622375164E+05      0.4293531654E+06
          0                 2           5            75   57     1      -0.1583525997E+01      65   45    1        -0.9198204297E+04      0.4486540412E+05
          0                 3           2            75   57     1       0.1307258750E+00      55  100    3        -0.9853763399E+03      0.1418121150E+04
          0                 4           2            55  100     3       0.1520989055E-01      55  100    3         0.4468792930E+03      0.4469038250E+03
          0                 5           2            55  100     3      -0.4492777841E-02      55  100    3        -0.1447249110E+03      0.1447256617E+03

    ------------------------------------------------
       NWT REQUIRED            5 OUTER ITERATIONS 
       AND A TOTAL OF         17 INNER ITERATIONS.
    ------------------------------------------------

 OUTPUT CONTROL FOR STRESS PERIOD   46   TIME STEP   12
    SAVE BUDGET
    SAVE HEAD FOR LAYERS:   1  2  3
 UBDSV1 SAVING "         STORAGE" ON UNIT  39 AT TIME STEP 12, STRESS PERIOD  46
 UBDSV2 SAVING "   CONSTANT HEAD" ON UNIT  39 AT TIME STEP 12, STRESS PERIOD  46
 UBDSV1 SAVING "FLOW RIGHT FACE " ON UNIT  39 AT TIME STEP 12, STRESS PERIOD  46
 UBDSV1 SAVING "FLOW FRONT FACE " ON UNIT  39 AT TIME STEP 12, STRESS PERIOD  46
 UBDSV1 SAVING "FLOW LOWER FACE " ON UNIT  39 AT TIME STEP 12, STRESS PERIOD  46
 UBDSV4 SAVING "           WELLS" ON UNIT  39 AT TIME STEP 12, STRESS PERIOD  46
 UBDSV3 SAVING "              ET" ON UNIT  39 AT TIME STEP 12, STRESS PERIOD  46
 UBDSV3 SAVING "        RECHARGE" ON UNIT  39 AT TIME STEP 12, STRESS PERIOD  46

 HEAD WILL BE SAVED ON UNIT   31 AT END OF TIME STEP   12, STRESS PERIOD   46
1
  VOLUMETRIC BUDGET FOR ENTIRE MODEL AT END OF TIME STEP   12, STRESS PERIOD  46
  ------------------------------------------------------------------------------

     CUMULATIVE VOLUMES      L**3       RATES FOR THIS TIME STEP      L**3/T
     ------------------                 ------------------------

           IN:                                      IN:
           ---                                      ---
             STORAGE =296996274176.0000               STORAGE =    13066584.0000
       CONSTANT HEAD = 27293878272.0000         CONSTANT HEAD =     2163758.0000
               WELLS = 20592756736.0000                 WELLS =     1225642.0000
                  ET =           0.0000                    ET =           0.0000
            RECHARGE =336600203264.0000              RECHARGE =    28895310.0000

            TOTAL IN =681483108352.0000              TOTAL IN =    45351296.0000

          OUT:                                     OUT:
          ----                                     ----
             STORAGE = 58112630784.0000               STORAGE =     6681506.5000
       CONSTANT HEAD = 56686288896.0000         CONSTANT HEAD =     2403708.5000
               WELLS =550117244928.0000                 WELLS =    34292212.0000
                  ET = 16566437888.0000                    ET =     1973843.5000
            RECHARGE =           0.0000              RECHARGE =           0.0000

           TOTAL OUT =681482584064.0000             TOTAL OUT =    45351272.0000

            IN - OUT =      524288.0000              IN - OUT =          24.0000

 PERCENT DISCREPANCY =           0.00     PERCENT DISCREPANCY =           0.00






         TIME SUMMARY AT END OF TIME STEP   12 IN STRESS PERIOD   46
                    SECONDS     MINUTES      HOURS       DAYS        YEARS
                    -----------------------------------------------------------
   TIME STEP LENGTH 2.62800E+06  43800.      730.00      30.417     8.32763E-02
 STRESS PERIOD TIME 3.15360E+07 5.25600E+05  8760.0      365.00     0.99932    
         TOTAL TIME 1.45170E+09 2.41949E+07 4.03249E+05  16802.      46.001    
1
1
                            STRESS PERIOD NO.   47, LENGTH =   365.0000    
                            -----------------------------------------------

                              NUMBER OF TIME STEPS =    12

                               MULTIPLIER FOR DELT =     1.000

                            INITIAL TIME STEP SIZE =   30.41667    

   1899 WELLS

 REUSING SURF FROM LAST STRESS PERIOD

 REUSING EVTR FROM LAST STRESS PERIOD

 REUSING EXDP FROM LAST STRESS PERIOD



                           RECHARGE
 READING ON UNIT   16 WITH FORMAT: (15F5.0)            


     63 TIME-VARIANT SPECIFIED-HEAD CELLS
 
 SOLVING FOR HEAD 
                                                   Max.-Head-Change                         Max.-Flux-Residual
  Residual-Control   Outer-Iter.   Inner-Iter.     Column Row Layer    Maximum-Head-Change  Column Row Layer    Maximum-Flux-Residual          L2-NORM 
          0                 1           7            84   50     3       0.4304481088E+02      58   96    3         0.4268693210E+06      0.1287971692E+07
          0                 2           6            23   44     2      -0.1411691360E+02      23   44    2        -0.2984177407E+06      0.3277622600E+06
          0                 3           4            23   45     2       0.3386122522E+01      23   44    2        -0.2674126905E+05      0.3012317298E+05
          0                 4           3            22   44     2       0.3044041201E+00      24   44    2         0.7481415263E+03      0.1228816167E+04
          0                 5           2            22   44     2       0.3044072455E-01      24   44    2         0.6715775794E+02      0.1143594566E+03
          0                 6           2            22   44     2       0.3047665557E-02      24   44    2         0.6011090483E+01      0.1064531742E+02

    ------------------------------------------------
       NWT REQUIRED            6 OUTER ITERATIONS 
       AND A TOTAL OF         24 INNER ITERATIONS.
    ------------------------------------------------

 NO OUTPUT CONTROL FOR STRESS PERIOD   47   TIME STEP    1
 
 SOLVING FOR HEAD 
                                                   Max.-Head-Change                         Max.-Flux-Residual
  Residual-Control   Outer-Iter.   Inner-Iter.     Column Row Layer    Maximum-Head-Change  Column Row Layer    Maximum-Flux-Residual          L2-NORM 
          0                 1           7            56   99     3       0.1113923895E+02      58   96    3         0.2833776260E+06      0.8270384114E+06
          0                 2           5            58   96     3      -0.1141995898E+01      58   96    3        -0.4176602837E+05      0.9250303750E+05
          0                 3           2            29   81     2       0.6572213778E-01      58   95    3        -0.6270435432E+03      0.6443396509E+03
          0                 4           2            29   81     2       0.1435996165E-02      64   45    1        -0.2108718414E+01      0.3517342717E+01

    ------------------------------------------------
       NWT REQUIRED            4 OUTER ITERATIONS 
       AND A TOTAL OF         16 INNER ITERATIONS.
    ------------------------------------------------

 NO OUTPUT CONTROL FOR STRESS PERIOD   47   TIME STEP    2
 
 SOLVING FOR HEAD 
                                                   Max.-Head-Change                         Max.-Flux-Residual
  Residual-Control   Outer-Iter.   Inner-Iter.     Column Row Layer    Maximum-Head-Change  Column Row Layer    Maximum-Flux-Residual          L2-NORM 
          0                 1           7            56   99     3       0.9644241712E+01      56   99    3         0.2324530119E+06      0.6650779495E+06
          0                 2           5            56   99     3      -0.8721594645E+00      56   99    3        -0.2340772731E+05      0.6983924335E+05
          0                 3           2            74   57     1       0.5983567053E-01      59   96    3        -0.1348401490E+04      0.1578881028E+04
          0                 4           1            74   57     1       0.4276983825E-03      74   57    1         0.1685634125E+01      0.3141084296E+01

    ------------------------------------------------
       NWT REQUIRED            4 OUTER ITERATIONS 
       AND A TOTAL OF         15 INNER ITERATIONS.
    ------------------------------------------------

 NO OUTPUT CONTROL FOR STRESS PERIOD   47   TIME STEP    3
 
 SOLVING FOR HEAD 
                                                   Max.-Head-Change                         Max.-Flux-Residual
  Residual-Control   Outer-Iter.   Inner-Iter.     Column Row Layer    Maximum-Head-Change  Column Row Layer    Maximum-Flux-Residual          L2-NORM 
          0                 1           7            56   99     3       0.8392045409E+01      56   99    3         0.2012714852E+06      0.5829288853E+06
          0                 2           5            56   99     3      -0.7595749598E+00      56   99    3        -0.2027036772E+05      0.5791036849E+05
          0                 3           2            75   60     1       0.5311889543E-01      75   60    1         0.2047740618E+03      0.3916376865E+03
          0                 4           1            57   99     3       0.3950769984E-03      57   99    3         0.1426889378E+02      0.1472765761E+02

    ------------------------------------------------
       NWT REQUIRED            4 OUTER ITERATIONS 
       AND A TOTAL OF         15 INNER ITERATIONS.
    ------------------------------------------------

 NO OUTPUT CONTROL FOR STRESS PERIOD   47   TIME STEP    4
 
 SOLVING FOR HEAD 
                                                   Max.-Head-Change                         Max.-Flux-Residual
  Residual-Control   Outer-Iter.   Inner-Iter.     Column Row Layer    Maximum-Head-Change  Column Row Layer    Maximum-Flux-Residual          L2-NORM 
          0                 1           7            56   99     3       0.7334481438E+01      56   99    3         0.1751479229E+06      0.5339010393E+06
          0                 2           5            23   46     2       0.1385578531E+01      56   99    3        -0.1763744716E+05      0.5367730484E+05
          0                 3           2            79   59     1       0.3748906306E-01      23   46    3        -0.2168108678E+03      0.2705831895E+03
          0                 4           1            79   59     1       0.3626780662E-03      79   59    1         0.8399940608E+00      0.2061702507E+01

    ------------------------------------------------
       NWT REQUIRED            4 OUTER ITERATIONS 
       AND A TOTAL OF         15 INNER ITERATIONS.
    ------------------------------------------------

 NO OUTPUT CONTROL FOR STRESS PERIOD   47   TIME STEP    5
 
 SOLVING FOR HEAD 
                                                   Max.-Head-Change                         Max.-Flux-Residual
  Residual-Control   Outer-Iter.   Inner-Iter.     Column Row Layer    Maximum-Head-Change  Column Row Layer    Maximum-Flux-Residual          L2-NORM 
          0                 1           7            56   99     3       0.6450293870E+01      56   99    3         0.1532082907E+06      0.5003593151E+06
          0                 2           5            56   99     3      -0.5832763191E+00      56   99    3        -0.1542648042E+05      0.5005251102E+05
          0                 3           2            79   57     1       0.4009183948E-02      56   99    2        -0.1367963522E+02      0.3630210807E+02

    ------------------------------------------------
       NWT REQUIRED            3 OUTER ITERATIONS 
       AND A TOTAL OF         14 INNER ITERATIONS.
    ------------------------------------------------

 NO OUTPUT CONTROL FOR STRESS PERIOD   47   TIME STEP    6
 
 SOLVING FOR HEAD 
                                                   Max.-Head-Change                         Max.-Flux-Residual
  Residual-Control   Outer-Iter.   Inner-Iter.     Column Row Layer    Maximum-Head-Change  Column Row Layer    Maximum-Flux-Residual          L2-NORM 
          0                 1           7            56   99     3       0.5691736927E+01      56   99    3         0.1346430485E+06      0.4763940302E+06
          0                 2           5            73   14     1      -0.1758594740E+01      56   99    3        -0.1355299116E+05      0.4985551994E+05
          0                 3           2            73   14     1       0.1534261681E+00      73   14    1         0.1201823438E+04      0.1533424308E+04
          0                 4           2            59   41     1      -0.2147669690E-02      59   41    1        -0.8350504135E+02      0.8363803141E+02

    ------------------------------------------------
       NWT REQUIRED            4 OUTER ITERATIONS 
       AND A TOTAL OF         16 INNER ITERATIONS.
    ------------------------------------------------

 NO OUTPUT CONTROL FOR STRESS PERIOD   47   TIME STEP    7
 
 SOLVING FOR HEAD 
                                                   Max.-Head-Change                         Max.-Flux-Residual
  Residual-Control   Outer-Iter.   Inner-Iter.     Column Row Layer    Maximum-Head-Change  Column Row Layer    Maximum-Flux-Residual          L2-NORM 
          0                 1           7            56   99     3       0.5041710206E+01      56   99    3         0.1188189173E+06      0.4580346216E+06
          0                 2           5            59   41     1      -0.9439475190E+00      56   99    3        -0.1195582352E+05      0.4658820562E+05
          0                 3           2            59   41     1       0.8059943654E-01      56   41    1         0.5472680226E+03      0.7286787822E+03
          0                 4           1            59   41     1       0.4320800993E-03      59   41    1         0.2373799236E+01      0.2840933536E+01

    ------------------------------------------------
       NWT REQUIRED            4 OUTER ITERATIONS 
       AND A TOTAL OF         15 INNER ITERATIONS.
    ------------------------------------------------

 NO OUTPUT CONTROL FOR STRESS PERIOD   47   TIME STEP    8
 
 SOLVING FOR HEAD 
                                                   Max.-Head-Change                         Max.-Flux-Residual
  Residual-Control   Outer-Iter.   Inner-Iter.     Column Row Layer    Maximum-Head-Change  Column Row Layer    Maximum-Flux-Residual          L2-NORM 
          0                 1           7            56   99     3       0.4480930424E+01      56   99    3         0.1052486070E+06      0.4432314135E+06
          0                 2           5            75   54     1      -0.6892547933E+00      56   99    3        -0.1058617480E+05      0.4490339497E+05
          0                 3           2            75   54     1       0.5975441708E-01      64   94    1         0.3720605409E+03      0.4831408752E+03
          0                 4           1            75   54     1       0.2410815138E-03      75   54    1         0.1116749208E+01      0.2061679661E+01

    ------------------------------------------------
       NWT REQUIRED            4 OUTER ITERATIONS 
       AND A TOTAL OF         15 INNER ITERATIONS.
    ------------------------------------------------

 NO OUTPUT CONTROL FOR STRESS PERIOD   47   TIME STEP    9
 
 SOLVING FOR HEAD 
                                                   Max.-Head-Change                         Max.-Flux-Residual
  Residual-Control   Outer-Iter.   Inner-Iter.     Column Row Layer    Maximum-Head-Change  Column Row Layer    Maximum-Flux-Residual          L2-NORM 
          0                 1           6            56   99     3       0.3996100582E+01      56   99    3         0.9355659771E+05      0.4308265576E+06
          0                 2           5            76   58     1      -0.3981478238E+00      70   19    2         0.1100650244E+05      0.4447205867E+05
          0                 3           2            76   58     1       0.3278880392E-01      76   58    1         0.1010155369E+03      0.1588098156E+03
          0                 4           1            76   58     1       0.3032292208E-03      59  100    1         0.1410444975E+01      0.2615320696E+01

    ------------------------------------------------
       NWT REQUIRED            4 OUTER ITERATIONS 
       AND A TOTAL OF         14 INNER ITERATIONS.
    ------------------------------------------------

 NO OUTPUT CONTROL FOR STRESS PERIOD   47   TIME STEP   10
 
 SOLVING FOR HEAD 
                                                   Max.-Head-Change                         Max.-Flux-Residual
  Residual-Control   Outer-Iter.   Inner-Iter.     Column Row Layer    Maximum-Head-Change  Column Row Layer    Maximum-Flux-Residual          L2-NORM 
          0                 1           6            56   99     3       0.3574991094E+01      56   99    3         0.8344012584E+05      0.4202804042E+06
          0                 2           5            23   41     2      -0.4005405143E+00      56   99    3        -0.8386058003E+04      0.4312900128E+05
          0                 3           2            40   76     2       0.9126871952E-02      24   41    2        -0.9365628275E+02      0.1454478440E+03

    ------------------------------------------------
       NWT REQUIRED            3 OUTER ITERATIONS 
       AND A TOTAL OF         13 INNER ITERATIONS.
    ------------------------------------------------

 NO OUTPUT CONTROL FOR STRESS PERIOD   47   TIME STEP   11
 
 SOLVING FOR HEAD 
                                                   Max.-Head-Change                         Max.-Flux-Residual
  Residual-Control   Outer-Iter.   Inner-Iter.     Column Row Layer    Maximum-Head-Change  Column Row Layer    Maximum-Flux-Residual          L2-NORM 
          0                 1           6            56   99     3       0.3207826059E+01      56   99    3         0.7465208540E+05      0.4113674613E+06
          0                 2           5            56   99     3      -0.2894896968E+00      76   57    2         0.9072209707E+04      0.4216711047E+05
          0                 3           2            23   41     3      -0.1607995340E-02      23   41    3        -0.8983967225E+02      0.1318148793E+03

    ------------------------------------------------
       NWT REQUIRED            3 OUTER ITERATIONS 
       AND A TOTAL OF         13 INNER ITERATIONS.
    ------------------------------------------------

 OUTPUT CONTROL FOR STRESS PERIOD   47   TIME STEP   12
    SAVE BUDGET
 UBDSV1 SAVING "         STORAGE" ON UNIT  39 AT TIME STEP 12, STRESS PERIOD  47
 UBDSV2 SAVING "   CONSTANT HEAD" ON UNIT  39 AT TIME STEP 12, STRESS PERIOD  47
 UBDSV1 SAVING "FLOW RIGHT FACE " ON UNIT  39 AT TIME STEP 12, STRESS PERIOD  47
 UBDSV1 SAVING "FLOW FRONT FACE " ON UNIT  39 AT TIME STEP 12, STRESS PERIOD  47
 UBDSV1 SAVING "FLOW LOWER FACE " ON UNIT  39 AT TIME STEP 12, STRESS PERIOD  47
 UBDSV4 SAVING "           WELLS" ON UNIT  39 AT TIME STEP 12, STRESS PERIOD  47
 UBDSV3 SAVING "              ET" ON UNIT  39 AT TIME STEP 12, STRESS PERIOD  47
 UBDSV3 SAVING "        RECHARGE" ON UNIT  39 AT TIME STEP 12, STRESS PERIOD  47
1
  VOLUMETRIC BUDGET FOR ENTIRE MODEL AT END OF TIME STEP   12, STRESS PERIOD  47
  ------------------------------------------------------------------------------

     CUMULATIVE VOLUMES      L**3       RATES FOR THIS TIME STEP      L**3/T
     ------------------                 ------------------------

           IN:                                      IN:
           ---                                      ---
             STORAGE =303090073600.0000               STORAGE =    15460121.0000
       CONSTANT HEAD = 28097101824.0000         CONSTANT HEAD =     2237144.2500
               WELLS = 21040113664.0000                 WELLS =     1225642.0000
                  ET =           0.0000                    ET =           0.0000
            RECHARGE =344540020736.0000              RECHARGE =    21752544.0000

            TOTAL IN =696767348736.0000              TOTAL IN =    40675452.0000

          OUT:                                     OUT:
          ----                                     ----
             STORAGE = 60058968064.0000               STORAGE =     4249921.0000
       CONSTANT HEAD = 57579712512.0000         CONSTANT HEAD =     2463048.2500
               WELLS =561942691840.0000                 WELLS =    32397412.0000
                  ET = 17185443840.0000                    ET =     1565083.3750
            RECHARGE =           0.0000              RECHARGE =           0.0000

           TOTAL OUT =696766824448.0000             TOTAL OUT =    40675464.0000

            IN - OUT =      524288.0000              IN - OUT =         -12.0000

 PERCENT DISCREPANCY =           0.00     PERCENT DISCREPANCY =          -0.00






         TIME SUMMARY AT END OF TIME STEP   12 IN STRESS PERIOD   47
                    SECONDS     MINUTES      HOURS       DAYS        YEARS
                    -----------------------------------------------------------
   TIME STEP LENGTH 2.62800E+06  43800.      730.00      30.417     8.32763E-02
 STRESS PERIOD TIME 3.15360E+07 5.25600E+05  8760.0      365.00     0.99932    
         TOTAL TIME 1.48323E+09 2.47205E+07 4.12009E+05  17167.      47.001    
1
1
                            STRESS PERIOD NO.   48, LENGTH =   365.0000    
                            -----------------------------------------------

                              NUMBER OF TIME STEPS =    12

                               MULTIPLIER FOR DELT =     1.000

                            INITIAL TIME STEP SIZE =   30.41667    

   1855 WELLS

 REUSING SURF FROM LAST STRESS PERIOD

 REUSING EVTR FROM LAST STRESS PERIOD

 REUSING EXDP FROM LAST STRESS PERIOD



                           RECHARGE
 READING ON UNIT   16 WITH FORMAT: (15F5.0)            


     63 TIME-VARIANT SPECIFIED-HEAD CELLS
 
 SOLVING FOR HEAD 
                                                   Max.-Head-Change                         Max.-Flux-Residual
  Residual-Control   Outer-Iter.   Inner-Iter.     Column Row Layer    Maximum-Head-Change  Column Row Layer    Maximum-Flux-Residual          L2-NORM 
          0                 1           7            84   56     3      -0.3424335315E+02      77   56    2         0.1520129040E+06      0.8196051381E+06
          0                 2           6            23   46     2      -0.1263886991E+02      23   46    2        -0.2863671838E+06      0.2984574535E+06
          0                 3           4            23   45     2       0.1553768611E+01      23   46    2        -0.2046776453E+05      0.2285761257E+05
          0                 4           3            23   45     2       0.1809269915E+00      23   45    2         0.5179822162E+03      0.1060081325E+04
          0                 5           2            23   45     2       0.1732161282E-01      23   45    2         0.4889826446E+02      0.9629957987E+02
          0                 6           2            23   45     2       0.1659198459E-02      23   45    2         0.4660411771E+01      0.9061651326E+01

    ------------------------------------------------
       NWT REQUIRED            6 OUTER ITERATIONS 
       AND A TOTAL OF         24 INNER ITERATIONS.
    ------------------------------------------------

 NO OUTPUT CONTROL FOR STRESS PERIOD   48   TIME STEP    1
 
 SOLVING FOR HEAD 
                                                   Max.-Head-Change                         Max.-Flux-Residual
  Residual-Control   Outer-Iter.   Inner-Iter.     Column Row Layer    Maximum-Head-Change  Column Row Layer    Maximum-Flux-Residual          L2-NORM 
          0                 1           7            84   56     3      -0.7511112773E+01      77   56    2         0.9074006795E+05      0.5617430389E+06
          0                 2           5            84   56     3       0.6825967688E+00      77   56    2        -0.9122177397E+04      0.5637836820E+05
          0                 3           2            66   22     1       0.1125513943E-01      60   70    1         0.3472550787E+03      0.3970760537E+03
          0                 4           1            60   69     3      -0.2261531010E-03      59   70    2        -0.7106579721E+01      0.1659002216E+02

    ------------------------------------------------
       NWT REQUIRED            4 OUTER ITERATIONS 
       AND A TOTAL OF         15 INNER ITERATIONS.
    ------------------------------------------------

 NO OUTPUT CONTROL FOR STRESS PERIOD   48   TIME STEP    2
 
 SOLVING FOR HEAD 
                                                   Max.-Head-Change                         Max.-Flux-Residual
  Residual-Control   Outer-Iter.   Inner-Iter.     Column Row Layer    Maximum-Head-Change  Column Row Layer    Maximum-Flux-Residual          L2-NORM 
          0                 1           7            56   99     3       0.3032224788E+01      56   99    3         0.7126747321E+05      0.4933859375E+06
          0                 2           5            56   99     3      -0.2734306477E+00      56   99    3        -0.7153945525E+04      0.4960991075E+05
          0                 3           2            58  100     2      -0.3582758047E-02      58  100    3         0.2813238144E+02      0.5777843864E+02

    ------------------------------------------------
       NWT REQUIRED            3 OUTER ITERATIONS 
       AND A TOTAL OF         14 INNER ITERATIONS.
    ------------------------------------------------

 NO OUTPUT CONTROL FOR STRESS PERIOD   48   TIME STEP    3
 
 SOLVING FOR HEAD 
                                                   Max.-Head-Change                         Max.-Flux-Residual
  Residual-Control   Outer-Iter.   Inner-Iter.     Column Row Layer    Maximum-Head-Change  Column Row Layer    Maximum-Flux-Residual          L2-NORM 
          0                 1           7            56   99     3       0.2703267963E+01      56   99    3         0.6333290724E+05      0.4612247441E+06
          0                 2           5            23   45     2      -0.4556126157E+00      23   45    2        -0.8323562176E+04      0.4720338784E+05
          0                 3           2            52   37     1       0.3432060171E-01      52   37    1         0.4659422168E+03      0.6463427434E+03
          0                 4           1            23   45     2       0.5734251775E-03      23   45    2         0.1207528368E+02      0.1621595118E+02

    ------------------------------------------------
       NWT REQUIRED            4 OUTER ITERATIONS 
       AND A TOTAL OF         15 INNER ITERATIONS.
    ------------------------------------------------

 NO OUTPUT CONTROL FOR STRESS PERIOD   48   TIME STEP    4
 
 SOLVING FOR HEAD 
                                                   Max.-Head-Change                         Max.-Flux-Residual
  Residual-Control   Outer-Iter.   Inner-Iter.     Column Row Layer    Maximum-Head-Change  Column Row Layer    Maximum-Flux-Residual          L2-NORM 
          0                 1           6            56   99     3       0.2417224837E+01      56   99    3         0.5646414913E+05      0.4421038180E+06
          0                 2           4            80   52     1      -0.9927158453E+00      80   52    1        -0.5612819132E+04      0.4486974397E+05
          0                 3           2            80   52     1       0.8322579501E-01      80   52    1         0.5157579929E+03      0.5622003013E+03
          0                 4           1            80   52     1       0.6348824263E-03      80   52    1         0.3856639093E+01      0.4433304576E+01

    ------------------------------------------------
       NWT REQUIRED            4 OUTER ITERATIONS 
       AND A TOTAL OF         13 INNER ITERATIONS.
    ------------------------------------------------

 NO OUTPUT CONTROL FOR STRESS PERIOD   48   TIME STEP    5
 
 SOLVING FOR HEAD 
                                                   Max.-Head-Change                         Max.-Flux-Residual
  Residual-Control   Outer-Iter.   Inner-Iter.     Column Row Layer    Maximum-Head-Change  Column Row Layer    Maximum-Flux-Residual          L2-NORM 
          0                 1           6            80   52     1      -0.2452692872E+01      90   52    1        -0.5249885087E+05      0.4292427799E+06
          0                 2           4            56   99     3      -0.2080154300E+00      90   52    1         0.5237054435E+04      0.4293091998E+05
          0                 3           2            54  107     2       0.1717841539E-02      24   21    2         0.2429013115E+03      0.2456169420E+03

    ------------------------------------------------
       NWT REQUIRED            3 OUTER ITERATIONS 
       AND A TOTAL OF         12 INNER ITERATIONS.
    ------------------------------------------------

 NO OUTPUT CONTROL FOR STRESS PERIOD   48   TIME STEP    6
 
 SOLVING FOR HEAD 
                                                   Max.-Head-Change                         Max.-Flux-Residual
  Residual-Control   Outer-Iter.   Inner-Iter.     Column Row Layer    Maximum-Head-Change  Column Row Layer    Maximum-Flux-Residual          L2-NORM 
          0                 1           6            56   99     3       0.2128212216E+01      90   52    1        -0.5162086142E+05      0.4196264481E+06
          0                 2           5            55   81     2      -0.3597171392E+01      55   81    2        -0.1131523252E+05      0.4470260401E+05
          0                 3           3            55   81     2       0.3023509287E+00      60   63    1        -0.5846127973E+04      0.5994109414E+04
          0                 4           2            60   63     1      -0.4813102851E-02      60   63    1        -0.4741123002E+03      0.4788068683E+03

    ------------------------------------------------
       NWT REQUIRED            4 OUTER ITERATIONS 
       AND A TOTAL OF         16 INNER ITERATIONS.
    ------------------------------------------------

 NO OUTPUT CONTROL FOR STRESS PERIOD   48   TIME STEP    7
 
 SOLVING FOR HEAD 
                                                   Max.-Head-Change                         Max.-Flux-Residual
  Residual-Control   Outer-Iter.   Inner-Iter.     Column Row Layer    Maximum-Head-Change  Column Row Layer    Maximum-Flux-Residual          L2-NORM 
          0                 1           6            55   81     2      -0.2025059785E+01      90   52    1        -0.5080403959E+05      0.4120391981E+06
          0                 2           5            56   99     3      -0.1773448535E+00      60   63    1        -0.8252389277E+04      0.4249166670E+05
          0                 3           3            44   35     1      -0.2127515056E-01      44   35    1        -0.2447486140E+04      0.2583990470E+04
          0                 4           2            44   35     1      -0.1913482976E-02      44   35    1        -0.2208113026E+03      0.2209118438E+03

    ------------------------------------------------
       NWT REQUIRED            4 OUTER ITERATIONS 
       AND A TOTAL OF         16 INNER ITERATIONS.
    ------------------------------------------------

 NO OUTPUT CONTROL FOR STRESS PERIOD   48   TIME STEP    8
 
 SOLVING FOR HEAD 
                                                   Max.-Head-Change                         Max.-Flux-Residual
  Residual-Control   Outer-Iter.   Inner-Iter.     Column Row Layer    Maximum-Head-Change  Column Row Layer    Maximum-Flux-Residual          L2-NORM 
          0                 1           6            56   99     3       0.1815404402E+01      90   52    1        -0.5003566549E+05      0.4054754540E+06
          0                 2           5            56   99     3      -0.1637508542E+00      44   35    1        -0.7230169479E+04      0.4242346271E+05
          0                 3           2            36   29     1       0.1402183815E-01      44   35    1         0.7140675266E+03      0.1072730392E+04
          0                 4           2            30   31     1      -0.9724316190E-03      30   31    1        -0.4736658356E+02      0.4772169423E+02

    ------------------------------------------------
       NWT REQUIRED            4 OUTER ITERATIONS 
       AND A TOTAL OF         15 INNER ITERATIONS.
    ------------------------------------------------

 NO OUTPUT CONTROL FOR STRESS PERIOD   48   TIME STEP    9
 
 SOLVING FOR HEAD 
                                                   Max.-Head-Change                         Max.-Flux-Residual
  Residual-Control   Outer-Iter.   Inner-Iter.     Column Row Layer    Maximum-Head-Change  Column Row Layer    Maximum-Flux-Residual          L2-NORM 
          0                 1           6            56   99     3       0.1676861068E+01      90   52    1        -0.4923771342E+05      0.3996600975E+06
          0                 2           4            83   61     1      -0.1160186738E+01      90   52    1         0.4911283682E+04      0.4018992334E+05
          0                 3           2            83   61     1       0.6764698704E-01      30   31    1         0.3593312135E+03      0.3978363548E+03
          0                 4           2            83   61     1       0.2156367447E-02      83   61    1         0.2153639363E+01      0.3588249313E+01

    ------------------------------------------------
       NWT REQUIRED            4 OUTER ITERATIONS 
       AND A TOTAL OF         14 INNER ITERATIONS.
    ------------------------------------------------

 NO OUTPUT CONTROL FOR STRESS PERIOD   48   TIME STEP   10

 INTERPOLATION FOR HEAD OBS#  253, ID 3260-48-334  CHANGED BECAUSE AT LEAST ONE
 NEIGHBORING CELL REQUIRED FOR INTERPOLATION IS DRY OR INACTIVE (OBS2BAS7SE)

 INTERPOLATION FOR HEAD OBS#  637, ID 3014-48-334  CHANGED BECAUSE AT LEAST ONE
 NEIGHBORING CELL REQUIRED FOR INTERPOLATION IS DRY OR INACTIVE (OBS2BAS7SE)

 INTERPOLATION FOR HEAD OBS# 1339, ID 2869-48-334  CHANGED BECAUSE AT LEAST ONE
 NEIGHBORING CELL REQUIRED FOR INTERPOLATION IS DRY OR INACTIVE (OBS2BAS7SE)

 INTERPOLATION FOR HEAD OBS# 1402, ID 2840-48-334  CHANGED BECAUSE AT LEAST ONE
 NEIGHBORING CELL REQUIRED FOR INTERPOLATION IS DRY OR INACTIVE (OBS2BAS7SE)
 
 SOLVING FOR HEAD 
                                                   Max.-Head-Change                         Max.-Flux-Residual
  Residual-Control   Outer-Iter.   Inner-Iter.     Column Row Layer    Maximum-Head-Change  Column Row Layer    Maximum-Flux-Residual          L2-NORM 
          0                 1           6            83   61     1      -0.2460853507E+01      90   52    1        -0.4843136443E+05      0.3944652705E+06
          0                 2           5            76   57     1      -0.9637610011E+00      90   52    1         0.4830516428E+04      0.3977492349E+05
          0                 3           2            76   57     1       0.7509999090E-01      48   40    1         0.4703201546E+03      0.5235126714E+03
          0                 4           2            76   57     1       0.9749889741E-03      76   57    1         0.2140559349E+01      0.2829165813E+01

    ------------------------------------------------
       NWT REQUIRED            4 OUTER ITERATIONS 
       AND A TOTAL OF         15 INNER ITERATIONS.
    ------------------------------------------------

 NO OUTPUT CONTROL FOR STRESS PERIOD   48   TIME STEP   11

 INTERPOLATION FOR HEAD OBS#  650, ID 3055-48-335  CHANGED BECAUSE AT LEAST ONE
 NEIGHBORING CELL REQUIRED FOR INTERPOLATION IS DRY OR INACTIVE (OBS2BAS7SE)

 INTERPOLATION FOR HEAD OBS#  774, ID 3008-48-336  CHANGED BECAUSE AT LEAST ONE
 NEIGHBORING CELL REQUIRED FOR INTERPOLATION IS DRY OR INACTIVE (OBS2BAS7SE)

 INTERPOLATION FOR HEAD OBS# 1656, ID 2303-48-349  CHANGED BECAUSE AT LEAST ONE
 NEIGHBORING CELL REQUIRED FOR INTERPOLATION IS DRY OR INACTIVE (OBS2BAS7SE)

 INTERPOLATION FOR HEAD OBS# 2182, ID 2355-48-362  CHANGED BECAUSE AT LEAST ONE
 NEIGHBORING CELL REQUIRED FOR INTERPOLATION IS DRY OR INACTIVE (OBS2BAS7SE)

 INTERPOLATION FOR HEAD OBS# 3199, ID 2443-48-336  CHANGED BECAUSE AT LEAST ONE
 NEIGHBORING CELL REQUIRED FOR INTERPOLATION IS DRY OR INACTIVE (OBS2BAS7SE)

 INTERPOLATION FOR HEAD OBS# 3701, ID 1479-48-364  CHANGED BECAUSE AT LEAST ONE
 NEIGHBORING CELL REQUIRED FOR INTERPOLATION IS DRY OR INACTIVE (OBS2BAS7SE)

 INTERPOLATION FOR HEAD OBS# 3715, ID 1471-48-364  CHANGED BECAUSE AT LEAST ONE
 NEIGHBORING CELL REQUIRED FOR INTERPOLATION IS DRY OR INACTIVE (OBS2BAS7SE)

 INTERPOLATION FOR HEAD OBS# 3758, ID 1427-48-364  CHANGED BECAUSE AT LEAST ONE
 NEIGHBORING CELL REQUIRED FOR INTERPOLATION IS DRY OR INACTIVE (OBS2BAS7SE)

 INTERPOLATION FOR HEAD OBS# 3775, ID 1405-48-364  CHANGED BECAUSE AT LEAST ONE
 NEIGHBORING CELL REQUIRED FOR INTERPOLATION IS DRY OR INACTIVE (OBS2BAS7SE)

 INTERPOLATION FOR HEAD OBS# 5403, ID 1705-48-335  CHANGED BECAUSE AT LEAST ONE
 NEIGHBORING CELL REQUIRED FOR INTERPOLATION IS DRY OR INACTIVE (OBS2BAS7SE)

 INTERPOLATION FOR HEAD OBS# 5407, ID 1530-48-335  CHANGED BECAUSE AT LEAST ONE
 NEIGHBORING CELL REQUIRED FOR INTERPOLATION IS DRY OR INACTIVE (OBS2BAS7SE)

 INTERPOLATION FOR HEAD OBS# 5433, ID 846-48-348   CHANGED BECAUSE AT LEAST ONE
 NEIGHBORING CELL REQUIRED FOR INTERPOLATION IS DRY OR INACTIVE (OBS2BAS7SE)

 INTERPOLATION FOR HEAD OBS# 6246, ID 1164-48-336  CHANGED BECAUSE AT LEAST ONE
 NEIGHBORING CELL REQUIRED FOR INTERPOLATION IS DRY OR INACTIVE (OBS2BAS7SE)

 INTERPOLATION FOR HEAD OBS# 6254, ID 1084-48-338  CHANGED BECAUSE AT LEAST ONE
 NEIGHBORING CELL REQUIRED FOR INTERPOLATION IS DRY OR INACTIVE (OBS2BAS7SE)

 INTERPOLATION FOR HEAD OBS# 7001, ID 683-48-342   CHANGED BECAUSE AT LEAST ONE
 NEIGHBORING CELL REQUIRED FOR INTERPOLATION IS DRY OR INACTIVE (OBS2BAS7SE)

 INTERPOLATION FOR HEAD OBS# 7380, ID 451-48-336   CHANGED BECAUSE AT LEAST ONE
 NEIGHBORING CELL REQUIRED FOR INTERPOLATION IS DRY OR INACTIVE (OBS2BAS7SE)

 INTERPOLATION FOR HEAD OBS# 7386, ID 397-48-336   CHANGED BECAUSE AT LEAST ONE
 NEIGHBORING CELL REQUIRED FOR INTERPOLATION IS DRY OR INACTIVE (OBS2BAS7SE)

 INTERPOLATION FOR HEAD OBS# 7533, ID 269-48-337   CHANGED BECAUSE AT LEAST ONE
 NEIGHBORING CELL REQUIRED FOR INTERPOLATION IS DRY OR INACTIVE (OBS2BAS7SE)

 INTERPOLATION FOR HEAD OBS# 7563, ID 230-48-337   CHANGED BECAUSE AT LEAST ONE
 NEIGHBORING CELL REQUIRED FOR INTERPOLATION IS DRY OR INACTIVE (OBS2BAS7SE)

 INTERPOLATION FOR HEAD OBS# 7782, ID 178-48-336   CHANGED BECAUSE AT LEAST ONE
 NEIGHBORING CELL REQUIRED FOR INTERPOLATION IS DRY OR INACTIVE (OBS2BAS7SE)
 
 SOLVING FOR HEAD 
                                                   Max.-Head-Change                         Max.-Flux-Residual
  Residual-Control   Outer-Iter.   Inner-Iter.     Column Row Layer    Maximum-Head-Change  Column Row Layer    Maximum-Flux-Residual          L2-NORM 
          0                 1           6            76   57     1      -0.2691740528E+01      90   52    1        -0.4763129335E+05      0.3899033492E+06
          0                 2           4            76   57     1       0.2097931712E+00      80   59    2         0.5420987849E+04      0.3937155660E+05
          0                 3           2            76   57     1       0.2703493723E-02      59   50    1        -0.1755210658E+02      0.3193080034E+02

    ------------------------------------------------
       NWT REQUIRED            3 OUTER ITERATIONS 
       AND A TOTAL OF         12 INNER ITERATIONS.
    ------------------------------------------------

 OUTPUT CONTROL FOR STRESS PERIOD   48   TIME STEP   12
    SAVE BUDGET
 UBDSV1 SAVING "         STORAGE" ON UNIT  39 AT TIME STEP 12, STRESS PERIOD  48
 UBDSV2 SAVING "   CONSTANT HEAD" ON UNIT  39 AT TIME STEP 12, STRESS PERIOD  48
 UBDSV1 SAVING "FLOW RIGHT FACE " ON UNIT  39 AT TIME STEP 12, STRESS PERIOD  48
 UBDSV1 SAVING "FLOW FRONT FACE " ON UNIT  39 AT TIME STEP 12, STRESS PERIOD  48
 UBDSV1 SAVING "FLOW LOWER FACE " ON UNIT  39 AT TIME STEP 12, STRESS PERIOD  48
 UBDSV4 SAVING "           WELLS" ON UNIT  39 AT TIME STEP 12, STRESS PERIOD  48
 UBDSV3 SAVING "              ET" ON UNIT  39 AT TIME STEP 12, STRESS PERIOD  48
 UBDSV3 SAVING "        RECHARGE" ON UNIT  39 AT TIME STEP 12, STRESS PERIOD  48
1
  VOLUMETRIC BUDGET FOR ENTIRE MODEL AT END OF TIME STEP   12, STRESS PERIOD  48
  ------------------------------------------------------------------------------

     CUMULATIVE VOLUMES      L**3       RATES FOR THIS TIME STEP      L**3/T
     ------------------                 ------------------------

           IN:                                      IN:
           ---                                      ---
             STORAGE =309315076096.0000               STORAGE =    16279716.0000
       CONSTANT HEAD = 28946198528.0000         CONSTANT HEAD =     2352050.0000
               WELLS = 21487470592.0000                 WELLS =     1225642.0000
                  ET =           0.0000                    ET =           0.0000
            RECHARGE =351775981568.0000              RECHARGE =    19824122.0000

            TOTAL IN =711524745216.0000              TOTAL IN =    39681528.0000

          OUT:                                     OUT:
          ----                                     ----
             STORAGE = 61260734464.0000               STORAGE =     2645839.5000
       CONSTANT HEAD = 58454265856.0000         CONSTANT HEAD =     2382761.0000
               WELLS =574105321472.0000                 WELLS =    33321022.0000
                  ET = 17703813120.0000                    ET =     1331927.0000
            RECHARGE =           0.0000              RECHARGE =           0.0000

           TOTAL OUT =711524155392.0000             TOTAL OUT =    39681548.0000

            IN - OUT =      589824.0000              IN - OUT =         -20.0000

 PERCENT DISCREPANCY =           0.00     PERCENT DISCREPANCY =          -0.00






         TIME SUMMARY AT END OF TIME STEP   12 IN STRESS PERIOD   48
                    SECONDS     MINUTES      HOURS       DAYS        YEARS
                    -----------------------------------------------------------
   TIME STEP LENGTH 2.62800E+06  43800.      730.00      30.417     8.32763E-02
 STRESS PERIOD TIME 3.15360E+07 5.25600E+05  8760.0      365.00     0.99932    
         TOTAL TIME 1.51477E+09 2.52461E+07 4.20769E+05  17532.      48.000    
1
1
                            STRESS PERIOD NO.   49, LENGTH =   366.0000    
                            -----------------------------------------------

                              NUMBER OF TIME STEPS =    12

                               MULTIPLIER FOR DELT =     1.000

                            INITIAL TIME STEP SIZE =   30.50000    

   1883 WELLS

 REUSING SURF FROM LAST STRESS PERIOD

 REUSING EVTR FROM LAST STRESS PERIOD

 REUSING EXDP FROM LAST STRESS PERIOD



                           RECHARGE
 READING ON UNIT   16 WITH FORMAT: (15F5.0)            


     63 TIME-VARIANT SPECIFIED-HEAD CELLS
 
 SOLVING FOR HEAD 
                                                   Max.-Head-Change                         Max.-Flux-Residual
  Residual-Control   Outer-Iter.   Inner-Iter.     Column Row Layer    Maximum-Head-Change  Column Row Layer    Maximum-Flux-Residual          L2-NORM 
          0                 1           7            87   54     3      -0.8726537978E+02      57  113    1        -0.2259863483E+06      0.8481097277E+06
          0                 2           5            87   54     3       0.9651205608E+01      72   15    2         0.7169706104E+05      0.1331021282E+06
          0                 3           3            73   11     3       0.1830678243E+00      73   11    3         0.7035225839E+03      0.7750162237E+03
          0                 4           2            84   53     3      -0.2458127256E-02      30   32    1         0.8328129329E+01      0.1298355804E+02

    ------------------------------------------------
       NWT REQUIRED            4 OUTER ITERATIONS 
       AND A TOTAL OF         17 INNER ITERATIONS.
    ------------------------------------------------

 NO OUTPUT CONTROL FOR STRESS PERIOD   49   TIME STEP    1
 
 SOLVING FOR HEAD 
                                                   Max.-Head-Change                         Max.-Flux-Residual
  Residual-Control   Outer-Iter.   Inner-Iter.     Column Row Layer    Maximum-Head-Change  Column Row Layer    Maximum-Flux-Residual          L2-NORM 
          0                 1           7            83   52     3      -0.1759898873E+02      57  113    1        -0.1148053946E+06      0.5933866524E+06
          0                 2           5            83   52     3       0.1630473237E+01      73   11    3         0.1453314157E+05      0.6165698996E+05
          0                 3           2            80   60     1       0.3074853754E-01      80   60    1         0.7443122154E+02      0.1204095485E+03
          0                 4           1            80   60     1       0.3057968919E-03      80   60    1         0.7596251387E+00      0.1765817800E+01

    ------------------------------------------------
       NWT REQUIRED            4 OUTER ITERATIONS 
       AND A TOTAL OF         15 INNER ITERATIONS.
    ------------------------------------------------

 NO OUTPUT CONTROL FOR STRESS PERIOD   49   TIME STEP    2
 
 SOLVING FOR HEAD 
                                                   Max.-Head-Change                         Max.-Flux-Residual
  Residual-Control   Outer-Iter.   Inner-Iter.     Column Row Layer    Maximum-Head-Change  Column Row Layer    Maximum-Flux-Residual          L2-NORM 
          0                 1           7            84   53     3      -0.6046082692E+01      91   52    1        -0.8351563115E+05      0.5418751489E+06
          0                 2           4            75   58     1      -0.6407599702E+00      60   61    2         0.9038130206E+04      0.5587589736E+05
          0                 3           3            59   78     1      -0.8059040513E-01      60   61    1        -0.4134797111E+04      0.5830983593E+04
          0                 4           2            59   78     1      -0.7267550595E-02      60   61    1        -0.3724000707E+03      0.5231265140E+03

    ------------------------------------------------
       NWT REQUIRED            4 OUTER ITERATIONS 
       AND A TOTAL OF         16 INNER ITERATIONS.
    ------------------------------------------------

 NO OUTPUT CONTROL FOR STRESS PERIOD   49   TIME STEP    3
 
 SOLVING FOR HEAD 
                                                   Max.-Head-Change                         Max.-Flux-Residual
  Residual-Control   Outer-Iter.   Inner-Iter.     Column Row Layer    Maximum-Head-Change  Column Row Layer    Maximum-Flux-Residual          L2-NORM 
          0                 1           6            83   53     3      -0.3022385997E+01      91   52    1        -0.8086662184E+05      0.5179797119E+06
          0                 2           4            56   40     1      -0.4119619893E+00      90   52    1         0.1192514697E+05      0.5508486408E+05
          0                 3           2            56   40     1       0.3636487546E-01      60   61    1         0.1096105818E+04      0.1436630221E+04
          0                 4           1            85   85     2      -0.1411390219E-03      11   82    2        -0.1483589547E+03      0.1484076336E+03

    ------------------------------------------------
       NWT REQUIRED            4 OUTER ITERATIONS 
       AND A TOTAL OF         13 INNER ITERATIONS.
    ------------------------------------------------

 NO OUTPUT CONTROL FOR STRESS PERIOD   49   TIME STEP    4
 
 SOLVING FOR HEAD 
                                                   Max.-Head-Change                         Max.-Flux-Residual
  Residual-Control   Outer-Iter.   Inner-Iter.     Column Row Layer    Maximum-Head-Change  Column Row Layer    Maximum-Flux-Residual          L2-NORM 
          0                 1           6            91   52     1      -0.2289925534E+01      91   52    1        -0.7847039124E+05      0.5023520442E+06
          0                 2           4            83   52     2       0.5256379680E+00      83   52    2         0.2362240741E+05      0.5640603243E+05
          0                 3           2            59   32     2       0.7311314711E-02      11   82    2        -0.2563071393E+03      0.3720216870E+03

    ------------------------------------------------
       NWT REQUIRED            3 OUTER ITERATIONS 
       AND A TOTAL OF         12 INNER ITERATIONS.
    ------------------------------------------------

 NO OUTPUT CONTROL FOR STRESS PERIOD   49   TIME STEP    5
 
 SOLVING FOR HEAD 
                                                   Max.-Head-Change                         Max.-Flux-Residual
  Residual-Control   Outer-Iter.   Inner-Iter.     Column Row Layer    Maximum-Head-Change  Column Row Layer    Maximum-Flux-Residual          L2-NORM 
          0                 1           6            91   52     1      -0.2225958113E+01      91   52    1        -0.7620196582E+05      0.4895851346E+06
          0                 2           4            22   44     2      -0.4759369213E+00      59   32    2         0.1125849106E+05      0.5030419714E+05
          0                 3           2            22   44     2       0.3813981143E-01      11   82    2        -0.3358668606E+03      0.3733737825E+03
          0                 4           1            11   82     2       0.6329723983E-03      11   82    2         0.4541127220E+02      0.5228978087E+02

    ------------------------------------------------
       NWT REQUIRED            4 OUTER ITERATIONS 
       AND A TOTAL OF         13 INNER ITERATIONS.
    ------------------------------------------------

 NO OUTPUT CONTROL FOR STRESS PERIOD   49   TIME STEP    6
 
 SOLVING FOR HEAD 
                                                   Max.-Head-Change                         Max.-Flux-Residual
  Residual-Control   Outer-Iter.   Inner-Iter.     Column Row Layer    Maximum-Head-Change  Column Row Layer    Maximum-Flux-Residual          L2-NORM 
          0                 1           6            91   52     1      -0.2163992889E+01      91   52    1        -0.7404533324E+05      0.4791167544E+06
          0                 2           4            72   15     1      -0.3743822488E+00      91   52    1         0.7375231383E+04      0.4811365473E+05
          0                 3           2            72   15     1       0.3228910888E-01      72   15    1         0.2207409950E+03      0.3178190433E+03
          0                 4           1            39   33     1       0.2051472210E-03      59   63    1        -0.1578087211E+01      0.2965834714E+01

    ------------------------------------------------
       NWT REQUIRED            4 OUTER ITERATIONS 
       AND A TOTAL OF         13 INNER ITERATIONS.
    ------------------------------------------------

 NO OUTPUT CONTROL FOR STRESS PERIOD   49   TIME STEP    7
 
 SOLVING FOR HEAD 
                                                   Max.-Head-Change                         Max.-Flux-Residual
  Residual-Control   Outer-Iter.   Inner-Iter.     Column Row Layer    Maximum-Head-Change  Column Row Layer    Maximum-Flux-Residual          L2-NORM 
          0                 1           6            72   15     1      -0.3243035990E+01      91   52    1        -0.7198278966E+05      0.4706155213E+06
          0                 2           4            86   57     2      -0.2072919971E+01      91   52    1         0.7170411260E+04      0.4720636748E+05
          0                 3           2            86   57     2       0.1776568303E-01      86   57    3        -0.4490722797E+02      0.6007752041E+02
          0                 4           2            86   57     2       0.1466287287E-02      86   57    3         0.3914628292E+01      0.4036453405E+01

    ------------------------------------------------
       NWT REQUIRED            4 OUTER ITERATIONS 
       AND A TOTAL OF         14 INNER ITERATIONS.
    ------------------------------------------------

 NO OUTPUT CONTROL FOR STRESS PERIOD   49   TIME STEP    8
 
 SOLVING FOR HEAD 
                                                   Max.-Head-Change                         Max.-Flux-Residual
  Residual-Control   Outer-Iter.   Inner-Iter.     Column Row Layer    Maximum-Head-Change  Column Row Layer    Maximum-Flux-Residual          L2-NORM 
          0                 1           6            86   57     2      -0.7698094955E+01      91   52    1        -0.7001452224E+05      0.4639457035E+06
          0                 2           4            76   62     1      -0.8834367420E+00      56   82    3         0.1347627893E+05      0.4897419146E+05
          0                 3           2            76   62     1       0.7302389762E-01      46   31    1         0.3186854850E+03      0.4104139819E+03
          0                 4           1            76   62     1       0.5786565074E-03      37   29    2         0.4420566946E+01      0.5294293948E+01

    ------------------------------------------------
       NWT REQUIRED            4 OUTER ITERATIONS 
       AND A TOTAL OF         13 INNER ITERATIONS.
    ------------------------------------------------

 NO OUTPUT CONTROL FOR STRESS PERIOD   49   TIME STEP    9
 
 SOLVING FOR HEAD 
                                                   Max.-Head-Change                         Max.-Flux-Residual
  Residual-Control   Outer-Iter.   Inner-Iter.     Column Row Layer    Maximum-Head-Change  Column Row Layer    Maximum-Flux-Residual          L2-NORM 
          0                 1           6            91   52     1      -0.1994804589E+01      91   52    1        -0.6813862101E+05      0.4576563861E+06
          0                 2           4            79   52     1      -0.3490901547E+01      79   52    1        -0.1574643285E+05      0.5000994777E+05
          0                 3           2            79   52     1       0.2860327889E+00      79   52    1         0.1420990500E+04      0.1915296672E+04
          0                 4           2            79   52     1       0.2484734977E-02      79   52    1         0.1211108433E+02      0.1362712608E+02

    ------------------------------------------------
       NWT REQUIRED            4 OUTER ITERATIONS 
       AND A TOTAL OF         14 INNER ITERATIONS.
    ------------------------------------------------

 NO OUTPUT CONTROL FOR STRESS PERIOD   49   TIME STEP   10
 
 SOLVING FOR HEAD 
                                                   Max.-Head-Change                         Max.-Flux-Residual
  Residual-Control   Outer-Iter.   Inner-Iter.     Column Row Layer    Maximum-Head-Change  Column Row Layer    Maximum-Flux-Residual          L2-NORM 
          0                 1           6            82   48     1      -0.2459589343E+01      91   52    1        -0.6635124568E+05      0.4523835070E+06
          0                 2           4            70   99     1      -0.5158606384E+00      60   62    2         0.1501301089E+05      0.4855619021E+05
          0                 3           3            61   60     1      -0.5894979838E-01      61   60    1        -0.3936641377E+04      0.3940127850E+04
          0                 4           2            61   60     1      -0.5307047699E-02      61   60    1        -0.3546815203E+03      0.3547225212E+03

    ------------------------------------------------
       NWT REQUIRED            4 OUTER ITERATIONS 
       AND A TOTAL OF         15 INNER ITERATIONS.
    ------------------------------------------------

 NO OUTPUT CONTROL FOR STRESS PERIOD   49   TIME STEP   11
 
 SOLVING FOR HEAD 
                                                   Max.-Head-Change                         Max.-Flux-Residual
  Residual-Control   Outer-Iter.   Inner-Iter.     Column Row Layer    Maximum-Head-Change  Column Row Layer    Maximum-Flux-Residual          L2-NORM 
          0                 1           6            77   54     1      -0.2229717229E+01      91   52    1        -0.6467181164E+05      0.4475474270E+06
          0                 2           4            56   84     3       0.5136294409E+00      56   84    3         0.1448415279E+05      0.4820177508E+05
          0                 3           2            73   54     1       0.2151509175E-01      61   60    1         0.6026798308E+03      0.7528337653E+03
          0                 4           1            34   28     1      -0.1846066333E-03      34   28    1        -0.1427210276E+02      0.1459202354E+02

    ------------------------------------------------
       NWT REQUIRED            4 OUTER ITERATIONS 
       AND A TOTAL OF         13 INNER ITERATIONS.
    ------------------------------------------------

 OUTPUT CONTROL FOR STRESS PERIOD   49   TIME STEP   12
    SAVE BUDGET
 UBDSV1 SAVING "         STORAGE" ON UNIT  39 AT TIME STEP 12, STRESS PERIOD  49
 UBDSV2 SAVING "   CONSTANT HEAD" ON UNIT  39 AT TIME STEP 12, STRESS PERIOD  49
 UBDSV1 SAVING "FLOW RIGHT FACE " ON UNIT  39 AT TIME STEP 12, STRESS PERIOD  49
 UBDSV1 SAVING "FLOW FRONT FACE " ON UNIT  39 AT TIME STEP 12, STRESS PERIOD  49
 UBDSV1 SAVING "FLOW LOWER FACE " ON UNIT  39 AT TIME STEP 12, STRESS PERIOD  49
 UBDSV4 SAVING "           WELLS" ON UNIT  39 AT TIME STEP 12, STRESS PERIOD  49
 UBDSV3 SAVING "              ET" ON UNIT  39 AT TIME STEP 12, STRESS PERIOD  49
 UBDSV3 SAVING "        RECHARGE" ON UNIT  39 AT TIME STEP 12, STRESS PERIOD  49
1
  VOLUMETRIC BUDGET FOR ENTIRE MODEL AT END OF TIME STEP   12, STRESS PERIOD  49
  ------------------------------------------------------------------------------

     CUMULATIVE VOLUMES      L**3       RATES FOR THIS TIME STEP      L**3/T
     ------------------                 ------------------------

           IN:                                      IN:
           ---                                      ---
             STORAGE =315949940736.0000               STORAGE =    17525814.0000
       CONSTANT HEAD = 29773565952.0000         CONSTANT HEAD =     2231902.5000
               WELLS = 21936056320.0000                 WELLS =     1225642.0000
                  ET =           0.0000                    ET =           0.0000
            RECHARGE =358446891008.0000              RECHARGE =    18226870.0000

            TOTAL IN =726106439680.0000              TOTAL IN =    39210228.0000

          OUT:                                     OUT:
          ----                                     ----
             STORAGE = 62071201792.0000               STORAGE =     1761463.5000
       CONSTANT HEAD = 59281784832.0000         CONSTANT HEAD =     2199453.7500
               WELLS =586634756096.0000                 WELLS =    34232744.0000
                  ET = 18118428672.0000                    ET =     1016587.6250
            RECHARGE =           0.0000              RECHARGE =           0.0000

           TOTAL OUT =726106112000.0000             TOTAL OUT =    39210248.0000

            IN - OUT =      327680.0000              IN - OUT =         -20.0000

 PERCENT DISCREPANCY =           0.00     PERCENT DISCREPANCY =          -0.00






         TIME SUMMARY AT END OF TIME STEP   12 IN STRESS PERIOD   49
                    SECONDS     MINUTES      HOURS       DAYS        YEARS
                    -----------------------------------------------------------
   TIME STEP LENGTH 2.63520E+06  43920.      732.00      30.500     8.35044E-02
 STRESS PERIOD TIME 3.16224E+07 5.27040E+05  8784.0      366.00      1.0021    
         TOTAL TIME 1.54639E+09 2.57732E+07 4.29553E+05  17898.      49.002    
1
1
                            STRESS PERIOD NO.   50, LENGTH =   365.0000    
                            -----------------------------------------------

                              NUMBER OF TIME STEPS =    12

                               MULTIPLIER FOR DELT =     1.000

                            INITIAL TIME STEP SIZE =   30.41667    

   1850 WELLS

 REUSING SURF FROM LAST STRESS PERIOD

 REUSING EVTR FROM LAST STRESS PERIOD

 REUSING EXDP FROM LAST STRESS PERIOD



                           RECHARGE
 READING ON UNIT   16 WITH FORMAT: (15F5.0)            


     63 TIME-VARIANT SPECIFIED-HEAD CELLS
 
 SOLVING FOR HEAD 
                                                   Max.-Head-Change                         Max.-Flux-Residual
  Residual-Control   Outer-Iter.   Inner-Iter.     Column Row Layer    Maximum-Head-Change  Column Row Layer    Maximum-Flux-Residual          L2-NORM 
          0                 1           7            80   52     3      -0.2611443648E+02      56   99    3        -0.2428956524E+06      0.9141189292E+06
          0                 2           5            78   52     2       0.2832261413E+01      78   52    2         0.8942599012E+05      0.1291106020E+06
          0                 3           2            74   56     1       0.6602753955E-01      84   50    2        -0.5677661088E+03      0.1025597427E+04
          0                 4           1            18   38     3      -0.3616493823E-03      18   38    3        -0.2580438884E+02      0.2890771370E+02

    ------------------------------------------------
       NWT REQUIRED            4 OUTER ITERATIONS 
       AND A TOTAL OF         15 INNER ITERATIONS.
    ------------------------------------------------

 NO OUTPUT CONTROL FOR STRESS PERIOD   50   TIME STEP    1
 
 SOLVING FOR HEAD 
                                                   Max.-Head-Change                         Max.-Flux-Residual
  Residual-Control   Outer-Iter.   Inner-Iter.     Column Row Layer    Maximum-Head-Change  Column Row Layer    Maximum-Flux-Residual          L2-NORM 
          0                 1           7            56   99     3      -0.8829422954E+01      56   99    3        -0.2150050635E+06      0.6987030731E+06
          0                 2           4            56   99     3       0.7897045706E+00      56   99    3         0.2133938271E+05      0.6977589251E+05
          0                 3           2            41   76     2      -0.2626703791E-01      41   76    2        -0.8730556640E+03      0.8741797575E+03
          0                 4           2            41   76     2      -0.2364755166E-02      41   76    2        -0.7859129111E+02      0.7863119446E+02

    ------------------------------------------------
       NWT REQUIRED            4 OUTER ITERATIONS 
       AND A TOTAL OF         15 INNER ITERATIONS.
    ------------------------------------------------

 NO OUTPUT CONTROL FOR STRESS PERIOD   50   TIME STEP    2
 
 SOLVING FOR HEAD 
                                                   Max.-Head-Change                         Max.-Flux-Residual
  Residual-Control   Outer-Iter.   Inner-Iter.     Column Row Layer    Maximum-Head-Change  Column Row Layer    Maximum-Flux-Residual          L2-NORM 
          0                 1           7            56   99     3      -0.7658134882E+01      56   99    3        -0.1845654234E+06      0.6467305056E+06
          0                 2           4            65    7     2      -0.2064702140E+01      56   99    3         0.1831599603E+05      0.6527693132E+05
          0                 3           2            65    7     2       0.9731880657E-01      41   76    2         0.2023229262E+03      0.3066280405E+03
          0                 4           2            65    7     2       0.4257691143E-02      65    7    2         0.2472056326E+01      0.4214658032E+01

    ------------------------------------------------
       NWT REQUIRED            4 OUTER ITERATIONS 
       AND A TOTAL OF         15 INNER ITERATIONS.
    ------------------------------------------------

 NO OUTPUT CONTROL FOR STRESS PERIOD   50   TIME STEP    3
 
 SOLVING FOR HEAD 
                                                   Max.-Head-Change                         Max.-Flux-Residual
  Residual-Control   Outer-Iter.   Inner-Iter.     Column Row Layer    Maximum-Head-Change  Column Row Layer    Maximum-Flux-Residual          L2-NORM 
          0                 1           6            56   99     3      -0.6702902388E+01      56   99    3        -0.1600723540E+06      0.6186209895E+06
          0                 2           4            56   82     2      -0.1132148804E+01      56   99    3         0.1589087679E+05      0.6394758435E+05
          0                 3           2            56   82     2       0.9577795144E-01      37   29    1         0.6205650525E+03      0.7613854544E+03
          0                 4           1            56   82     2       0.5707400794E-03      56   82    2         0.2194018986E+01      0.3419334913E+01

    ------------------------------------------------
       NWT REQUIRED            4 OUTER ITERATIONS 
       AND A TOTAL OF         13 INNER ITERATIONS.
    ------------------------------------------------

 NO OUTPUT CONTROL FOR STRESS PERIOD   50   TIME STEP    4
 
 SOLVING FOR HEAD 
                                                   Max.-Head-Change                         Max.-Flux-Residual
  Residual-Control   Outer-Iter.   Inner-Iter.     Column Row Layer    Maximum-Head-Change  Column Row Layer    Maximum-Flux-Residual          L2-NORM 
          0                 1           6            56   99     3      -0.5915310364E+01      56   99    3        -0.1400939519E+06      0.5988291223E+06
          0                 2           4            81   52     1      -0.5210115089E+01      80   45    2         0.1906642222E+05      0.6545798887E+05
          0                 3           2            81   52     1       0.4120417074E+00      80   59    1        -0.2686708520E+04      0.3150881905E+04
          0                 4           2            80   59     1      -0.8691769529E-02      80   59    1        -0.2421527576E+03      0.2428572562E+03

    ------------------------------------------------
       NWT REQUIRED            4 OUTER ITERATIONS 
       AND A TOTAL OF         14 INNER ITERATIONS.
    ------------------------------------------------

 NO OUTPUT CONTROL FOR STRESS PERIOD   50   TIME STEP    5
 
 SOLVING FOR HEAD 
                                                   Max.-Head-Change                         Max.-Flux-Residual
  Residual-Control   Outer-Iter.   Inner-Iter.     Column Row Layer    Maximum-Head-Change  Column Row Layer    Maximum-Flux-Residual          L2-NORM 
          0                 1           6            56   99     3      -0.5260017389E+01      56   99    3        -0.1236208864E+06      0.5841956359E+06
          0                 2           4            80   59     1      -0.3350456788E+01      56   99    3         0.1228859492E+05      0.5952541652E+05
          0                 3           2            80   59     1       0.2609380584E+00      80   59    1         0.4733439047E+03      0.5100717861E+03
          0                 4           2            80   59     1       0.3460442444E-02      64   28    1        -0.9299548708E+01      0.1133014698E+02

    ------------------------------------------------
       NWT REQUIRED            4 OUTER ITERATIONS 
       AND A TOTAL OF         14 INNER ITERATIONS.
    ------------------------------------------------

 NO OUTPUT CONTROL FOR STRESS PERIOD   50   TIME STEP    6
 
 SOLVING FOR HEAD 
                                                   Max.-Head-Change                         Max.-Flux-Residual
  Residual-Control   Outer-Iter.   Inner-Iter.     Column Row Layer    Maximum-Head-Change  Column Row Layer    Maximum-Flux-Residual          L2-NORM 
          0                 1           6            55   99     3      -0.5000554375E+01      56   99    3        -0.1099150617E+06      0.5724883612E+06
          0                 2           4            56   84     2      -0.1423151880E+01      53   37    2         0.1585470434E+05      0.6102272175E+05
          0                 3           2            56   84     2       0.1207435780E+00      64   28    1         0.6193051301E+03      0.8118467887E+03
          0                 4           1            56   84     2       0.7343411008E-03      56   84    2         0.2830248397E+01      0.3643050490E+01

    ------------------------------------------------
       NWT REQUIRED            4 OUTER ITERATIONS 
       AND A TOTAL OF         13 INNER ITERATIONS.
    ------------------------------------------------

 NO OUTPUT CONTROL FOR STRESS PERIOD   50   TIME STEP    7
 
 SOLVING FOR HEAD 
                                                   Max.-Head-Change                         Max.-Flux-Residual
  Residual-Control   Outer-Iter.   Inner-Iter.     Column Row Layer    Maximum-Head-Change  Column Row Layer    Maximum-Flux-Residual          L2-NORM 
          0                 1           6            55   99     3      -0.4897878189E+01      55   99    3        -0.1041469532E+06      0.5614782283E+06
          0                 2           4            55   99     3       0.4373211890E+01      55   99    3         0.1027541528E+06      0.1172233624E+06
          0                 3           2            55   99     3      -0.3573989258E+01      55   99    3        -0.9242624465E+05      0.9243138354E+05
          0                 4           2            55   99     3       0.2155325000E+01      55   99    3         0.6113214544E+05      0.6113221448E+05
          0                 5           2            55   99     3      -0.1514389208E+01      55   99    3        -0.4710046363E+05      0.4710048621E+05
          0                 6           2            55   99     3       0.7882927506E+00      55   99    3         0.2684128005E+05      0.2684129811E+05
          0                 7           2            55   99     3      -0.3689579139E+00      55   99    3        -0.1373729070E+05      0.1373729642E+05
          0                 8           2            55   99     3       0.1196781539E+00      55   99    3         0.4866245716E+04      0.4866249209E+04
          0                 9           2            55   99     3      -0.2844301429E-01      55   99    3        -0.1260298855E+04      0.1260299561E+04
          0                10           2            55   99     3       0.3899585437E-02      55   99    3         0.1882644417E+03      0.1882653984E+03

    ------------------------------------------------
       NWT REQUIRED           10 OUTER ITERATIONS 
       AND A TOTAL OF         26 INNER ITERATIONS.
    ------------------------------------------------

 NO OUTPUT CONTROL FOR STRESS PERIOD   50   TIME STEP    8
 
 SOLVING FOR HEAD 
                                                   Max.-Head-Change                         Max.-Flux-Residual
  Residual-Control   Outer-Iter.   Inner-Iter.     Column Row Layer    Maximum-Head-Change  Column Row Layer    Maximum-Flux-Residual          L2-NORM 
          0                 1           7            56   99     3      -0.3820383332E+01      56   99    3        -0.8835334450E+05      0.5467186339E+06
          0                 2           4            55   99     3       0.3808340046E+01      55   99    3         0.8945035374E+05      0.1046165146E+06
          0                 3           2            55   99     3      -0.3815329555E+01      55   99    3        -0.9862963399E+05      0.9862970337E+05
          0                 4           2            55   99     3       0.3166439792E+01      55   99    3         0.8976208468E+05      0.8976214084E+05
          0                 5           2            55   99     3      -0.2151168365E+01      55   99    3        -0.6691643849E+05      0.6691648122E+05
          0                 6           2            55   99     3       0.1338438557E+01      55   99    3         0.4555897056E+05      0.4555899293E+05
          0                 7           2            55   99     3      -0.6467878905E+00      55   99    3        -0.2408487720E+05      0.2408489055E+05
          0                 8           2            55   99     3       0.2555918090E+00      55   99    3         0.1038930822E+05      0.1038931318E+05
          0                 9           2            55   99     3      -0.7104943881E-01      55   99    3        -0.3149105449E+04      0.3149107954E+04
          0                10           2            55   99     3       0.1310440172E-01      55   99    3         0.6319067337E+03      0.6319080500E+03
          0                11           2            55   99     3      -0.1229983595E-02      55   99    3        -0.6451973549E+02      0.6452291681E+02

    ------------------------------------------------
       NWT REQUIRED           11 OUTER ITERATIONS 
       AND A TOTAL OF         29 INNER ITERATIONS.
    ------------------------------------------------

 NO OUTPUT CONTROL FOR STRESS PERIOD   50   TIME STEP    9
 
 SOLVING FOR HEAD 
                                                   Max.-Head-Change                         Max.-Flux-Residual
  Residual-Control   Outer-Iter.   Inner-Iter.     Column Row Layer    Maximum-Head-Change  Column Row Layer    Maximum-Flux-Residual          L2-NORM 
          0                 1           7            56   99     3      -0.3439374215E+01      56   99    3        -0.7944405291E+05      0.5352344473E+06
          0                 2           4            55   99     3       0.1672500691E+01      55   99    3         0.3927608094E+05      0.6679478181E+05
          0                 3           2            55   99     3      -0.1723323253E+01      55   99    3        -0.4454071728E+05      0.4456573983E+05
          0                 4           2            55   99     3       0.1464508935E+01      55   99    3         0.4153130286E+05      0.4153153365E+05
          0                 5           2            55   99     3      -0.9873941140E+00      55   99    3        -0.3071343008E+05      0.3071344878E+05
          0                 6           2            55   99     3       0.5794033892E+00      55   99    3         0.1972817026E+05      0.1972817900E+05
          0                 7           2            55   99     3      -0.2486661422E+00      55   99    3        -0.9261010134E+04      0.9261015199E+04
          0                 8           2            55   99     3       0.8483812143E-01      55   99    3         0.3449195198E+04      0.3449196625E+04
          0                 9           2            55   99     3      -0.1911792248E-01      55   99    3        -0.8475809024E+03      0.8475815587E+03
          0                10           2            55   99     3       0.2583981236E-02      55   99    3         0.1245868351E+03      0.1245870446E+03

    ------------------------------------------------
       NWT REQUIRED           10 OUTER ITERATIONS 
       AND A TOTAL OF         27 INNER ITERATIONS.
    ------------------------------------------------

 NO OUTPUT CONTROL FOR STRESS PERIOD   50   TIME STEP   10
 
 SOLVING FOR HEAD 
                                                   Max.-Head-Change                         Max.-Flux-Residual
  Residual-Control   Outer-Iter.   Inner-Iter.     Column Row Layer    Maximum-Head-Change  Column Row Layer    Maximum-Flux-Residual          L2-NORM 
          0                 1           7            56   99     3      -0.3113919372E+01      56   99    3        -0.7169063322E+05      0.5276950667E+06
          0                 2           4            82   52     1      -0.3204868097E+01      55   99    3         0.1717555536E+05      0.5711471810E+05
          0                 3           2            55   99     3      -0.7177782066E+00      55   99    3        -0.1855310236E+05      0.1858809785E+05
          0                 4           2            55   99     3       0.5837481245E+00      55   99    3         0.1655983198E+05      0.1655984499E+05
          0                 5           2            55   99     3      -0.3767173614E+00      55   99    3        -0.1171920678E+05      0.1171921322E+05
          0                 6           2            55   99     3       0.2010781466E+00      55   99    3         0.6848615765E+04      0.6848619137E+04
          0                 7           2            55   99     3      -0.7874072920E-01      55   99    3        -0.2933025749E+04      0.2933027411E+04
          0                 8           2            55   99     3       0.2299771925E-01      55   99    3         0.9352507216E+03      0.9352511559E+03
          0                 9           2            55   99     3      -0.4277308546E-02      55   99    3        -0.1896690916E+03      0.1896692278E+03

    ------------------------------------------------
       NWT REQUIRED            9 OUTER ITERATIONS 
       AND A TOTAL OF         25 INNER ITERATIONS.
    ------------------------------------------------

 NO OUTPUT CONTROL FOR STRESS PERIOD   50   TIME STEP   11
 
 SOLVING FOR HEAD 
                                                   Max.-Head-Change                         Max.-Flux-Residual
  Residual-Control   Outer-Iter.   Inner-Iter.     Column Row Layer    Maximum-Head-Change  Column Row Layer    Maximum-Flux-Residual          L2-NORM 
          0                 1           7            82   52     1      -0.1065144403E+02      81   46    1        -0.6764246555E+05      0.5219210276E+06
          0                 2           4            82   52     1       0.7200037840E+00      77   46    2         0.8673976434E+04      0.5395515351E+05
          0                 3           2            55   99     3      -0.3260877068E+00      55   99    3        -0.8429995434E+04      0.8445430721E+04
          0                 4           2            55   99     3       0.2538028145E+00      55   99    3         0.7201749551E+04      0.7201753947E+04
          0                 5           2            55   99     3      -0.1571454139E+00      55   99    3        -0.4889389698E+04      0.4889392626E+04
          0                 6           2            55   99     3       0.7817266206E-01      55   99    3         0.2663166088E+04      0.2663167573E+04
          0                 7           2            55   99     3      -0.2866892503E-01      55   99    3        -0.1068087179E+04      0.1068087825E+04
          0                 8           2            55   99     3       0.7532866138E-02      55   99    3         0.3064125706E+03      0.3064127349E+03

    ------------------------------------------------
       NWT REQUIRED            8 OUTER ITERATIONS 
       AND A TOTAL OF         23 INNER ITERATIONS.
    ------------------------------------------------

 OUTPUT CONTROL FOR STRESS PERIOD   50   TIME STEP   12
    SAVE BUDGET
 UBDSV1 SAVING "         STORAGE" ON UNIT  39 AT TIME STEP 12, STRESS PERIOD  50
 UBDSV2 SAVING "   CONSTANT HEAD" ON UNIT  39 AT TIME STEP 12, STRESS PERIOD  50
 UBDSV1 SAVING "FLOW RIGHT FACE " ON UNIT  39 AT TIME STEP 12, STRESS PERIOD  50
 UBDSV1 SAVING "FLOW FRONT FACE " ON UNIT  39 AT TIME STEP 12, STRESS PERIOD  50
 UBDSV1 SAVING "FLOW LOWER FACE " ON UNIT  39 AT TIME STEP 12, STRESS PERIOD  50
 UBDSV4 SAVING "           WELLS" ON UNIT  39 AT TIME STEP 12, STRESS PERIOD  50
 UBDSV3 SAVING "              ET" ON UNIT  39 AT TIME STEP 12, STRESS PERIOD  50
 UBDSV3 SAVING "        RECHARGE" ON UNIT  39 AT TIME STEP 12, STRESS PERIOD  50
1
  VOLUMETRIC BUDGET FOR ENTIRE MODEL AT END OF TIME STEP   12, STRESS PERIOD  50
  ------------------------------------------------------------------------------

     CUMULATIVE VOLUMES      L**3       RATES FOR THIS TIME STEP      L**3/T
     ------------------                 ------------------------

           IN:                                      IN:
           ---                                      ---
             STORAGE =324020862976.0000               STORAGE =    21479916.0000
       CONSTANT HEAD = 30624247808.0000         CONSTANT HEAD =     2366177.2500
               WELLS = 22383413248.0000                 WELLS =     1225642.0000
                  ET =           0.0000                    ET =           0.0000
            RECHARGE =364421414912.0000              RECHARGE =    16368261.0000

            TOTAL IN =741449924608.0000              TOTAL IN =    41440000.0000

          OUT:                                     OUT:
          ----                                     ----
             STORAGE = 62775803904.0000               STORAGE =     1631820.2500
       CONSTANT HEAD = 60060565504.0000         CONSTANT HEAD =     2096405.8750
               WELLS =600214536192.0000                 WELLS =    37137676.0000
                  ET = 18398595072.0000                    ET =      574151.5000
            RECHARGE =           0.0000              RECHARGE =           0.0000

           TOTAL OUT =741449465856.0000             TOTAL OUT =    41440052.0000

            IN - OUT =      458752.0000              IN - OUT =         -52.0000

 PERCENT DISCREPANCY =           0.00     PERCENT DISCREPANCY =          -0.00






         TIME SUMMARY AT END OF TIME STEP   12 IN STRESS PERIOD   50
                    SECONDS     MINUTES      HOURS       DAYS        YEARS
                    -----------------------------------------------------------
   TIME STEP LENGTH 2.62800E+06  43800.      730.00      30.417     8.32763E-02
 STRESS PERIOD TIME 3.15360E+07 5.25600E+05  8760.0      365.00     0.99932    
         TOTAL TIME 1.57793E+09 2.62988E+07 4.38313E+05  18263.      50.001    
1
1
                            STRESS PERIOD NO.   51, LENGTH =   365.0000    
                            -----------------------------------------------

                              NUMBER OF TIME STEPS =    12

                               MULTIPLIER FOR DELT =     1.000

                            INITIAL TIME STEP SIZE =   30.41667    

   1813 WELLS

 REUSING SURF FROM LAST STRESS PERIOD

 REUSING EVTR FROM LAST STRESS PERIOD

 REUSING EXDP FROM LAST STRESS PERIOD



                           RECHARGE
 READING ON UNIT   16 WITH FORMAT: (15F5.0)            


     63 TIME-VARIANT SPECIFIED-HEAD CELLS
 
 SOLVING FOR HEAD 
                                                   Max.-Head-Change                         Max.-Flux-Residual
  Residual-Control   Outer-Iter.   Inner-Iter.     Column Row Layer    Maximum-Head-Change  Column Row Layer    Maximum-Flux-Residual          L2-NORM 
          0                 1           7            83   52     3       0.6508490250E+02      37   29    2         0.1975829447E+06      0.9550469431E+06
          0                 2           5            92   77     2       0.7924234097E+01      37   29    1        -0.4303303439E+05      0.1082122896E+06
          0                 3           4            55   99     3      -0.1297299047E+01      55   99    3        -0.3352141222E+05      0.4041025761E+05
          0                 4           2            55   99     3       0.1282122575E+01      55   99    3         0.3635632100E+05      0.3641300952E+05
          0                 5           2            55   99     3      -0.1047272660E+01      55   99    3        -0.3257086014E+05      0.3257139623E+05
          0                 6           2            55   99     3       0.7590378680E+00      55   99    3         0.2584083236E+05      0.2584084610E+05
          0                 7           2            55   99     3      -0.4015150413E+00      55   99    3        -0.1495207533E+05      0.1495208167E+05
          0                 8           2            55   99     3       0.1916809317E+00      55   99    3         0.7791699643E+04      0.7791701722E+04
          0                 9           2            55   99     3      -0.6255885937E-01      55   99    3        -0.2773109924E+04      0.2773111304E+04
          0                10           2            55   99     3       0.1529145433E-01      55   99    3         0.7373566020E+03      0.7373567905E+03
          0                11           2            55   99     3      -0.2195608138E-02      55   99    3        -0.1151627696E+03      0.1151631164E+03

    ------------------------------------------------
       NWT REQUIRED           11 OUTER ITERATIONS 
       AND A TOTAL OF         32 INNER ITERATIONS.
    ------------------------------------------------

 NO OUTPUT CONTROL FOR STRESS PERIOD   51   TIME STEP    1
 
 SOLVING FOR HEAD 
                                                   Max.-Head-Change                         Max.-Flux-Residual
  Residual-Control   Outer-Iter.   Inner-Iter.     Column Row Layer    Maximum-Head-Change  Column Row Layer    Maximum-Flux-Residual          L2-NORM 
          0                 1           7            83   52     3       0.1498862208E+02      55  100    3        -0.1234321311E+06      0.6201446508E+06
          0                 2           5            83   52     3      -0.1362815024E+01      37   29    2         0.2398233451E+05      0.6701888648E+05
          0                 3           3            55   99     3      -0.5321386697E+00      55   99    3        -0.1372575815E+05      0.1394317355E+05
          0                 4           2            55   99     3       0.5198810194E+00      55   99    3         0.1471589150E+05      0.1471589722E+05
          0                 5           2            55   99     3      -0.4194411380E+00      55   99    3        -0.1302122919E+05      0.1302123418E+05
          0                 6           2            55   99     3       0.2858155595E+00      55   99    3         0.9713503894E+04      0.9713507494E+04
          0                 7           2            55   99     3      -0.1473694659E+00      55   99    3        -0.5477907878E+04      0.5477910103E+04
          0                 8           2            55   99     3       0.6220798125E-01      55   99    3         0.2524405804E+04      0.2524406661E+04
          0                 9           2            55   99     3      -0.1833136072E-01      55   99    3        -0.8111036596E+03      0.8111040283E+03
          0                10           2            55   99     3       0.3706102468E-02      55   99    3         0.1784126699E+03      0.1784127216E+03

    ------------------------------------------------
       NWT REQUIRED           10 OUTER ITERATIONS 
       AND A TOTAL OF         29 INNER ITERATIONS.
    ------------------------------------------------

 NO OUTPUT CONTROL FOR STRESS PERIOD   51   TIME STEP    2
 
 SOLVING FOR HEAD 
                                                   Max.-Head-Change                         Max.-Flux-Residual
  Residual-Control   Outer-Iter.   Inner-Iter.     Column Row Layer    Maximum-Head-Change  Column Row Layer    Maximum-Flux-Residual          L2-NORM 
          0                 1           6            55  100     3      -0.5317120830E+01      55  100    3        -0.1167466155E+06      0.5191690861E+06
          0                 2           4            55  100     3       0.4730538605E+00      55  100    3         0.1152706684E+05      0.5314635788E+05
          0                 3           2            55   99     3      -0.2293078579E+00      55   99    3        -0.5920628242E+04      0.5925521392E+04
          0                 4           2            55   99     3       0.2185681745E+00      55   99    3         0.6194035794E+04      0.6194049539E+04
          0                 5           2            55   99     3      -0.1716473902E+00      55   99    3        -0.5333974122E+04      0.5333976586E+04
          0                 6           2            55   99     3       0.1113271589E+00      55   99    3         0.3787815403E+04      0.3787817050E+04
          0                 7           2            55   99     3      -0.5570786369E-01      55   99    3        -0.2072851041E+04      0.2072851969E+04
          0                 8           2            55   99     3       0.2180931974E-01      55   99    3         0.8860175674E+03      0.8860179352E+03
          0                 9           2            55   99     3      -0.6009716013E-02      55   99    3        -0.2661846295E+03      0.2661847543E+03

    ------------------------------------------------
       NWT REQUIRED            9 OUTER ITERATIONS 
       AND A TOTAL OF         24 INNER ITERATIONS.
    ------------------------------------------------

 NO OUTPUT CONTROL FOR STRESS PERIOD   51   TIME STEP    3
 
 SOLVING FOR HEAD 
                                                   Max.-Head-Change                         Max.-Flux-Residual
  Residual-Control   Outer-Iter.   Inner-Iter.     Column Row Layer    Maximum-Head-Change  Column Row Layer    Maximum-Flux-Residual          L2-NORM 
          0                 1           6            55  100     3      -0.5073669362E+01      55  100    3        -0.1109992696E+06      0.4671173787E+06
          0                 2           4            55  100     3       0.2057572234E+01      55  100    3         0.4986484480E+05      0.6761954269E+05
          0                 3           3            55  100     3      -0.1424098917E+01      55  100    3        -0.3799086518E+05      0.3811260319E+05
          0                 4           3            55  100     3       0.6276867233E+00      55  100    3         0.1837044766E+05      0.1863481338E+05
          0                 5           2            55  100     3      -0.2967844516E+00      55  100    3        -0.9519200335E+04      0.9878903855E+04
          0                 6           2            55  100     3       0.9001154980E-01      55  100    3         0.3160685463E+04      0.3647451249E+04
          0                 7           2            55   99     3      -0.2612771630E-01      55   99    3        -0.9729291756E+03      0.1251339851E+04
          0                 8           2            55   99     3       0.9794933213E-02      55   99    3         0.3982806956E+03      0.4118918389E+03

    ------------------------------------------------
       NWT REQUIRED            8 OUTER ITERATIONS 
       AND A TOTAL OF         24 INNER ITERATIONS.
    ------------------------------------------------

 NO OUTPUT CONTROL FOR STRESS PERIOD   51   TIME STEP    4
 
 SOLVING FOR HEAD 
                                                   Max.-Head-Change                         Max.-Flux-Residual
  Residual-Control   Outer-Iter.   Inner-Iter.     Column Row Layer    Maximum-Head-Change  Column Row Layer    Maximum-Flux-Residual          L2-NORM 
          0                 1           6            55  100     3      -0.4246896686E+01      55  100    3        -0.9251895543E+05      0.4304000846E+06
          0                 2           4            55  100     3       0.4893501036E+01      55  100    3         0.1183578984E+06      0.1259627131E+06
          0                 3           3            55  100     3      -0.4475458026E+01      55  100    3        -0.1193628038E+06      0.1194116037E+06
          0                 4           3            55  100     3       0.3448503851E+01      55  100    3         0.1007278709E+06      0.1007494932E+06
          0                 5           3            55  100     3      -0.2380070420E+01      55  100    3        -0.7634818429E+05      0.7636799829E+05
          0                 6           3            55  100     3       0.1376741993E+01      55  100    3         0.4829998160E+05      0.4831460198E+05
          0                 7           3            55  100     3      -0.6648891755E+00      55  100    3        -0.2552405215E+05      0.2553184403E+05
          0                 8           2            55  100     3       0.2446201158E+00      55  100    3         0.1025035381E+05      0.1025353036E+05
          0                 9           2            55  100     3      -0.6509297600E-01      55  100    3        -0.2973765495E+04      0.2974650435E+04
          0                10           2            55  100     3       0.1092302011E-01      55  100    3         0.5431273095E+03      0.5432876089E+03
          0                11           2            55  100     3      -0.8753350418E-03      55  100    3        -0.4725822916E+02      0.4728991313E+02

    ------------------------------------------------
       NWT REQUIRED           11 OUTER ITERATIONS 
       AND A TOTAL OF         33 INNER ITERATIONS.
    ------------------------------------------------

 NO OUTPUT CONTROL FOR STRESS PERIOD   51   TIME STEP    5
 
 SOLVING FOR HEAD 
                                                   Max.-Head-Change                         Max.-Flux-Residual
  Residual-Control   Outer-Iter.   Inner-Iter.     Column Row Layer    Maximum-Head-Change  Column Row Layer    Maximum-Flux-Residual          L2-NORM 
          0                 1           6            56   99     3      -0.3169609688E+01      56   99    3        -0.7247229141E+05      0.3991913394E+06
          0                 2           4            55  100     3       0.2377456126E+01      55  100    3         0.5747139803E+05      0.7077589820E+05
          0                 3           3            55  100     3      -0.2438917257E+01      55  100    3        -0.6497947238E+05      0.6500391026E+05
          0                 4           3            55  100     3       0.2064189313E+01      55  100    3         0.6029480420E+05      0.6031175947E+05
          0                 5           3            55  100     3      -0.1398251415E+01      55  100    3        -0.4482807729E+05      0.4484376927E+05
          0                 6           3            55  100     3       0.8255479379E+00      55  100    3         0.2895884272E+05      0.2896981996E+05
          0                 7           2            55  100     3      -0.3630159370E+00      55  100    3        -0.1393174049E+05      0.1393797599E+05
          0                 8           2            55  100     3       0.1267499775E+00      55  100    3         0.5309721293E+04      0.5312277564E+04
          0                 9           2            55  100     3      -0.2968942962E-01      55  100    3        -0.1356227258E+04      0.1356991147E+04
          0                10           2            55  100     3       0.4246861561E-02      55  100    3         0.2110136454E+03      0.2111585815E+03

    ------------------------------------------------
       NWT REQUIRED           10 OUTER ITERATIONS 
       AND A TOTAL OF         30 INNER ITERATIONS.
    ------------------------------------------------

 NO OUTPUT CONTROL FOR STRESS PERIOD   51   TIME STEP    6
 
 SOLVING FOR HEAD 
                                                   Max.-Head-Change                         Max.-Flux-Residual
  Residual-Control   Outer-Iter.   Inner-Iter.     Column Row Layer    Maximum-Head-Change  Column Row Layer    Maximum-Flux-Residual          L2-NORM 
          0                 1           6            56   99     3      -0.2907619392E+01      56   99    3        -0.6618415589E+05      0.3803037285E+06
          0                 2           4            75   65     1      -0.2096146069E+01      55  100    3         0.2508054608E+05      0.4660673475E+05
          0                 3           3            55  100     3      -0.1034436426E+01      55  100    3        -0.2754905011E+05      0.2757785121E+05
          0                 4           3            55  100     3       0.8537835239E+00      55  100    3         0.2494606890E+05      0.2497146242E+05
          0                 5           2            55  100     3      -0.5610430633E+00      55  100    3        -0.1798123665E+05      0.1800483991E+05
          0                 6           2            55  100     3       0.3067968620E+00      55  100    3         0.1076322362E+05      0.1078047317E+05
          0                 7           2            55  100     3      -0.1235948428E+00      55  100    3        -0.4742486438E+04      0.4752819827E+04
          0                 8           2            55  100     3       0.3756425664E-01      55  100    3         0.1573547556E+04      0.1578195099E+04
          0                 9           2            55  100     3      -0.7372314086E-02      55  100    3        -0.3367229724E+03      0.3382847723E+03

    ------------------------------------------------
       NWT REQUIRED            9 OUTER ITERATIONS 
       AND A TOTAL OF         26 INNER ITERATIONS.
    ------------------------------------------------

 NO OUTPUT CONTROL FOR STRESS PERIOD   51   TIME STEP    7
 
 SOLVING FOR HEAD 
                                                   Max.-Head-Change                         Max.-Flux-Residual
  Residual-Control   Outer-Iter.   Inner-Iter.     Column Row Layer    Maximum-Head-Change  Column Row Layer    Maximum-Flux-Residual          L2-NORM 
          0                 1           6            56   99     3      -0.2677938777E+01      56   99    3        -0.6071230195E+05      0.3665162622E+06
          0                 2           4            55  100     3       0.4883142063E+00      55  100    3         0.1174568439E+05      0.3951060140E+05
          0                 3           2            55  100     3      -0.4669362693E+00      55  100    3        -0.1243365218E+05      0.1247819214E+05
          0                 4           2            55  100     3       0.3697187021E+00      55  100    3         0.1080385386E+05      0.1084688070E+05
          0                 5           2            55  100     3      -0.2333395846E+00      55  100    3        -0.7477365851E+04      0.7518093092E+04
          0                 6           2            55  100     3       0.1189795210E+00      55  100    3         0.4174169629E+04      0.4205247228E+04
          0                 7           2            55  100     3      -0.4486276070E-01      55  100    3        -0.1721187602E+04      0.1740501229E+04
          0                 8           2            55  100     3       0.1225579444E-01      55  100    3         0.5133201587E+03      0.5226189139E+03
          0                 9           2            55  100     3      -0.2096031162E-02      55  100    3        -0.9570239900E+02      0.9910533767E+02

    ------------------------------------------------
       NWT REQUIRED            9 OUTER ITERATIONS 
       AND A TOTAL OF         24 INNER ITERATIONS.
    ------------------------------------------------

 NO OUTPUT CONTROL FOR STRESS PERIOD   51   TIME STEP    8
 
 SOLVING FOR HEAD 
                                                   Max.-Head-Change                         Max.-Flux-Residual
  Residual-Control   Outer-Iter.   Inner-Iter.     Column Row Layer    Maximum-Head-Change  Column Row Layer    Maximum-Flux-Residual          L2-NORM 
          0                 1           6            56   99     3      -0.2475782264E+01      56   99    3        -0.5591911187E+05      0.3557073657E+06
          0                 2           4            79   83     1      -0.5318432818E+00      25   20    2         0.6757136212E+04      0.3711154055E+05
          0                 3           2            55  100     3      -0.2383141621E+00      55  100    3        -0.6345351368E+04      0.6436720739E+04
          0                 4           2            55  100     3       0.1828401483E+00      55  100    3         0.5342927086E+04      0.5413860459E+04
          0                 5           2            55  100     3      -0.1119649450E+00      55  100    3        -0.3587437378E+04      0.3655232416E+04
          0                 6           2            55  100     3       0.5447951474E-01      55  100    3         0.1911095680E+04      0.1963970307E+04
          0                 7           2            55  100     3      -0.1962425097E-01      55  100    3        -0.7527149606E+03      0.7860847651E+03
          0                 8           2            55  100     3       0.4999586883E-02      55  100    3         0.2093304456E+03      0.2258264772E+03

    ------------------------------------------------
       NWT REQUIRED            8 OUTER ITERATIONS 
       AND A TOTAL OF         22 INNER ITERATIONS.
    ------------------------------------------------

 NO OUTPUT CONTROL FOR STRESS PERIOD   51   TIME STEP    9
 
 SOLVING FOR HEAD 
                                                   Max.-Head-Change                         Max.-Flux-Residual
  Residual-Control   Outer-Iter.   Inner-Iter.     Column Row Layer    Maximum-Head-Change  Column Row Layer    Maximum-Flux-Residual          L2-NORM 
          0                 1           6            56   99     3      -0.2296795716E+01      56   99    3        -0.5169638966E+05      0.3470095155E+06
          0                 2           4            56   99     3       0.2064673090E+00      25   18    1        -0.9437533787E+04      0.3615457797E+05
          0                 3           2            55  100     3      -0.1397865959E+00      55  100    3        -0.3721612164E+04      0.3886200188E+04
          0                 4           2            55  100     3       0.1049371693E+00      55  100    3         0.3066162690E+04      0.3177741902E+04
          0                 5           2            55  100     3      -0.6290308680E-01      55  100    3        -0.2015061894E+04      0.2121630378E+04
          0                 6           2            55  100     3       0.2968328707E-01      55  100    3         0.1041010596E+04      0.1124349861E+04
          0                 7           2            55  100     3      -0.1035902668E-01      55  100    3        -0.3971780141E+03      0.4494333252E+03
          0                 8           2            55  100     3       0.2519959783E-02      55  100    3         0.1054463184E+03      0.1309079991E+03

    ------------------------------------------------
       NWT REQUIRED            8 OUTER ITERATIONS 
       AND A TOTAL OF         22 INNER ITERATIONS.
    ------------------------------------------------

 NO OUTPUT CONTROL FOR STRESS PERIOD   51   TIME STEP   10
 
 SOLVING FOR HEAD 
                                                   Max.-Head-Change                         Max.-Flux-Residual
  Residual-Control   Outer-Iter.   Inner-Iter.     Column Row Layer    Maximum-Head-Change  Column Row Layer    Maximum-Flux-Residual          L2-NORM 
          0                 1           6            56   99     3      -0.2137371085E+01      56   99    3        -0.4795675969E+05      0.3396964457E+06
          0                 2           4            56   99     3       0.1921600001E+00      25   19    1        -0.9173420079E+04      0.3589642201E+05
          0                 3           2            55  100     3      -0.9301444443E-01      55  100    3        -0.2476092770E+04      0.2623452072E+04
          0                 4           2            55  100     3       0.6872083024E-01      55  100    3         0.2007674086E+04      0.2159309353E+04
          0                 5           2            55  100     3      -0.4053136966E-01      55  100    3        -0.1298103396E+04      0.1441692570E+04
          0                 6           2            55  100     3       0.1871268021E-01      55  100    3         0.6560620089E+03      0.7671440127E+03
          0                 7           2            55  100     3      -0.6377107642E-02      55  100    3        -0.2443906443E+03      0.3125141254E+03

    ------------------------------------------------
       NWT REQUIRED            7 OUTER ITERATIONS 
       AND A TOTAL OF         20 INNER ITERATIONS.
    ------------------------------------------------

 NO OUTPUT CONTROL FOR STRESS PERIOD   51   TIME STEP   11
 
 SOLVING FOR HEAD 
                                                   Max.-Head-Change                         Max.-Flux-Residual
  Residual-Control   Outer-Iter.   Inner-Iter.     Column Row Layer    Maximum-Head-Change  Column Row Layer    Maximum-Flux-Residual          L2-NORM 
          0                 1           6            56   99     3      -0.1994748332E+01      56   99    3        -0.4462730356E+05      0.3334752125E+06
          0                 2           4            78   53     1      -0.5199006194E+01      78   53    1        -0.6183738851E+04      0.3473377905E+05
          0                 3           2            78   53     1       0.3042789103E+00      55  100    3        -0.1795557326E+04      0.2057756197E+04
          0                 4           2            55  100     3       0.4919024811E-01      55  100    3         0.1437022781E+04      0.1590720360E+04
          0                 5           2            55  100     3      -0.2861839711E-01      55  100    3        -0.9164683802E+03      0.1060542268E+04
          0                 6           2            55  100     3       0.1298092554E-01      55  100    3         0.4550339867E+03      0.5650442237E+03
          0                 7           2            55   99     3      -0.4348715728E-02      55  100    3        -0.1661246998E+03      0.2322434733E+03

    ------------------------------------------------
       NWT REQUIRED            7 OUTER ITERATIONS 
       AND A TOTAL OF         20 INNER ITERATIONS.
    ------------------------------------------------

 OUTPUT CONTROL FOR STRESS PERIOD   51   TIME STEP   12
    SAVE BUDGET
    SAVE HEAD FOR LAYERS:   1  2  3
 UBDSV1 SAVING "         STORAGE" ON UNIT  39 AT TIME STEP 12, STRESS PERIOD  51
 UBDSV2 SAVING "   CONSTANT HEAD" ON UNIT  39 AT TIME STEP 12, STRESS PERIOD  51
 UBDSV1 SAVING "FLOW RIGHT FACE " ON UNIT  39 AT TIME STEP 12, STRESS PERIOD  51
 UBDSV1 SAVING "FLOW FRONT FACE " ON UNIT  39 AT TIME STEP 12, STRESS PERIOD  51
 UBDSV1 SAVING "FLOW LOWER FACE " ON UNIT  39 AT TIME STEP 12, STRESS PERIOD  51
 UBDSV4 SAVING "           WELLS" ON UNIT  39 AT TIME STEP 12, STRESS PERIOD  51
 UBDSV3 SAVING "              ET" ON UNIT  39 AT TIME STEP 12, STRESS PERIOD  51
 UBDSV3 SAVING "        RECHARGE" ON UNIT  39 AT TIME STEP 12, STRESS PERIOD  51

 HEAD WILL BE SAVED ON UNIT   31 AT END OF TIME STEP   12, STRESS PERIOD   51
1
  VOLUMETRIC BUDGET FOR ENTIRE MODEL AT END OF TIME STEP   12, STRESS PERIOD  51
  ------------------------------------------------------------------------------

     CUMULATIVE VOLUMES      L**3       RATES FOR THIS TIME STEP      L**3/T
     ------------------                 ------------------------

           IN:                                      IN:
           ---                                      ---
             STORAGE =329374466048.0000               STORAGE =    13630551.0000
       CONSTANT HEAD = 31492734976.0000         CONSTANT HEAD =     2405621.2500
               WELLS = 22830770176.0000                 WELLS =     1225642.0000
                  ET =           0.0000                    ET =           0.0000
            RECHARGE =372482342912.0000              RECHARGE =    22085266.0000

            TOTAL IN =756180320256.0000              TOTAL IN =    39347080.0000

          OUT:                                     OUT:
          ----                                     ----
             STORAGE = 64721530880.0000               STORAGE =     4207200.0000
       CONSTANT HEAD = 60945874944.0000         CONSTANT HEAD =     2534310.0000
               WELLS =611866902528.0000                 WELLS =    31879510.0000
                  ET = 18645712896.0000                    ET =      725963.0000
            RECHARGE =           0.0000              RECHARGE =           0.0000

           TOTAL OUT =756179992576.0000             TOTAL OUT =    39346984.0000

            IN - OUT =      327680.0000              IN - OUT =          96.0000

 PERCENT DISCREPANCY =           0.00     PERCENT DISCREPANCY =           0.00






         TIME SUMMARY AT END OF TIME STEP   12 IN STRESS PERIOD   51
                    SECONDS     MINUTES      HOURS       DAYS        YEARS
                    -----------------------------------------------------------
   TIME STEP LENGTH 2.62800E+06  43800.      730.00      30.417     8.32763E-02
 STRESS PERIOD TIME 3.15360E+07 5.25600E+05  8760.0      365.00     0.99932    
         TOTAL TIME 1.60946E+09 2.68243E+07 4.47072E+05  18628.      51.001    
1
1
                            STRESS PERIOD NO.   52, LENGTH =   365.0000    
                            -----------------------------------------------

                              NUMBER OF TIME STEPS =    12

                               MULTIPLIER FOR DELT =     1.000

                            INITIAL TIME STEP SIZE =   30.41667    

   1805 WELLS

 REUSING SURF FROM LAST STRESS PERIOD

 REUSING EVTR FROM LAST STRESS PERIOD

 REUSING EXDP FROM LAST STRESS PERIOD



                           RECHARGE
 READING ON UNIT   16 WITH FORMAT: (15F5.0)            


     63 TIME-VARIANT SPECIFIED-HEAD CELLS
 
 SOLVING FOR HEAD 
                                                   Max.-Head-Change                         Max.-Flux-Residual
  Residual-Control   Outer-Iter.   Inner-Iter.     Column Row Layer    Maximum-Head-Change  Column Row Layer    Maximum-Flux-Residual          L2-NORM 
          0                 1           7            84   50     3       0.7430934191E+02      55  108    3        -0.1434093851E+06      0.8967288226E+06
          0                 2           5            92   77     2       0.1358302371E+02      29   31    2         0.2117714528E+05      0.9485372668E+05
          0                 3           2            92   77     2       0.6899422924E+00      55  100    3        -0.1244213782E+05      0.1332403063E+05
          0                 4           2            55  100     3       0.4136138940E+00      55  100    3         0.1210038507E+05      0.1243859758E+05
          0                 5           2            55  100     3      -0.2970896396E+00      55  100    3        -0.9529623159E+04      0.9658361658E+04
          0                 6           2            55  100     3       0.1768388721E+00      55  100    3         0.6209455734E+04      0.6241223538E+04
          0                 7           2            55  100     3      -0.7917451206E-01      55  100    3        -0.3040193628E+04      0.3045423723E+04
          0                 8           2            55  100     3       0.2733046907E-01      55  100    3         0.1145684967E+04      0.1146092062E+04
          0                 9           2            55  100     3      -0.6370714348E-02      55  100    3        -0.2911642569E+03      0.2911725444E+03

    ------------------------------------------------
       NWT REQUIRED            9 OUTER ITERATIONS 
       AND A TOTAL OF         26 INNER ITERATIONS.
    ------------------------------------------------

 NO OUTPUT CONTROL FOR STRESS PERIOD   52   TIME STEP    1
 
 SOLVING FOR HEAD 
                                                   Max.-Head-Change                         Max.-Flux-Residual
  Residual-Control   Outer-Iter.   Inner-Iter.     Column Row Layer    Maximum-Head-Change  Column Row Layer    Maximum-Flux-Residual          L2-NORM 
          0                 1           6            84   50     3       0.1189234323E+02      81   46    1         0.1098265942E+06      0.6680202896E+06
          0                 2           5            19   38     2      -0.1161479306E+02      19   38    2        -0.2043794552E+05      0.7375873449E+05
          0                 3           3            19   38     2       0.9261599599E+00      55  100    3        -0.5821186542E+04      0.6726796883E+04
          0                 4           2            55  100     3       0.1877807086E+00      55  100    3         0.5495226841E+04      0.5698853546E+04
          0                 5           2            55  100     3      -0.1310681111E+00      55  100    3        -0.4205052104E+04      0.4290171161E+04
          0                 6           2            55  100     3       0.7430576440E-01      55  100    3         0.2609890607E+04      0.2634335919E+04
          0                 7           2            55  100     3      -0.3198921017E-01      55  100    3        -0.1228584182E+04      0.1233278394E+04
          0                 8           2            55  100     3       0.1030146879E-01      55  100    3         0.4319351356E+03      0.4324052963E+03
          0                 9           2            55  100     3      -0.2219316155E-02      55  100    3        -0.1014456596E+03      0.1014608382E+03

    ------------------------------------------------
       NWT REQUIRED            9 OUTER ITERATIONS 
       AND A TOTAL OF         26 INNER ITERATIONS.
    ------------------------------------------------

 NO OUTPUT CONTROL FOR STRESS PERIOD   52   TIME STEP    2
 
 SOLVING FOR HEAD 
                                                   Max.-Head-Change                         Max.-Flux-Residual
  Residual-Control   Outer-Iter.   Inner-Iter.     Column Row Layer    Maximum-Head-Change  Column Row Layer    Maximum-Flux-Residual          L2-NORM 
          0                 1           6            19   38     2      -0.1337506994E+02      81   46    1         0.1065088625E+06      0.5905254445E+06
          0                 2           5            19   38     2       0.3779198743E+01      19   38    2         0.1224812304E+05      0.6172647234E+05
          0                 3           2            55  100     3      -0.1198153610E+00      55  100    3        -0.3195009942E+04      0.3380789045E+04
          0                 4           2            55  100     3       0.1010374937E+00      55  100    3         0.2956928416E+04      0.3026373464E+04
          0                 5           2            55  100     3      -0.6916071983E-01      55  100    3        -0.2219026259E+04      0.2249043182E+04
          0                 6           2            55  100     3       0.3806784374E-01      55  100    3         0.1337267590E+04      0.1346480764E+04
          0                 7           2            55  100     3      -0.1595717998E-01      55  100    3        -0.6129380482E+03      0.6148274541E+03
          0                 8           2            55  100     3       0.4928111570E-02      55  100    3         0.2066693988E+03      0.2068798379E+03

    ------------------------------------------------
       NWT REQUIRED            8 OUTER ITERATIONS 
       AND A TOTAL OF         23 INNER ITERATIONS.
    ------------------------------------------------

 NO OUTPUT CONTROL FOR STRESS PERIOD   52   TIME STEP    3
 
 SOLVING FOR HEAD 
                                                   Max.-Head-Change                         Max.-Flux-Residual
  Residual-Control   Outer-Iter.   Inner-Iter.     Column Row Layer    Maximum-Head-Change  Column Row Layer    Maximum-Flux-Residual          L2-NORM 
          0                 1           6            81   45     1       0.3394151997E+01      81   46    1         0.1032744680E+06      0.5436096105E+06
          0                 2           4            77   46     2       0.1050521362E+01      90   67    1        -0.2786791448E+05      0.6158317246E+05
          0                 3           2            77   46     2      -0.9551034037E-01      55  100    3        -0.2109829120E+04      0.2257424082E+04
          0                 4           2            55  100     3       0.6582412017E-01      55  100    3         0.1926145850E+04      0.1933449265E+04
          0                 5           2            55  100     3      -0.4442816311E-01      55  100    3        -0.1425395193E+04      0.1428600901E+04
          0                 6           2            55  100     3       0.2398574144E-01      55  100    3         0.8425989411E+03      0.8436057530E+03
          0                 7           2            55  100     3      -0.9860802592E-02      55  100    3        -0.3787906625E+03      0.3790008703E+03

    ------------------------------------------------
       NWT REQUIRED            7 OUTER ITERATIONS 
       AND A TOTAL OF         20 INNER ITERATIONS.
    ------------------------------------------------

 NO OUTPUT CONTROL FOR STRESS PERIOD   52   TIME STEP    4
 
 SOLVING FOR HEAD 
                                                   Max.-Head-Change                         Max.-Flux-Residual
  Residual-Control   Outer-Iter.   Inner-Iter.     Column Row Layer    Maximum-Head-Change  Column Row Layer    Maximum-Flux-Residual          L2-NORM 
          0                 1           6            81   45     1       0.3258065638E+01      81   46    1         0.1000984548E+06      0.5116912830E+06
          0                 2           4            81   45     1      -0.2966865958E+00      81   46    1        -0.1003082647E+05      0.5176954633E+05
          0                 3           2            55  100     3      -0.5519138676E-01      55  100    3        -0.1471084219E+04      0.1496553799E+04
          0                 4           2            55  100     3       0.4537491169E-01      55  100    3         0.1327550083E+04      0.1329694594E+04
          0                 5           2            55  100     3      -0.3025331671E-01      55  100    3        -0.9705307329E+03      0.9714915302E+03
          0                 6           2            55  100     3       0.1607220037E-01      55  100    3         0.5645936396E+03      0.5649059964E+03
          0                 7           2            55  100     3      -0.6495697889E-02      55  100    3        -0.2495329702E+03      0.2496014386E+03

    ------------------------------------------------
       NWT REQUIRED            7 OUTER ITERATIONS 
       AND A TOTAL OF         20 INNER ITERATIONS.
    ------------------------------------------------

 NO OUTPUT CONTROL FOR STRESS PERIOD   52   TIME STEP    5
 
 SOLVING FOR HEAD 
                                                   Max.-Head-Change                         Max.-Flux-Residual
  Residual-Control   Outer-Iter.   Inner-Iter.     Column Row Layer    Maximum-Head-Change  Column Row Layer    Maximum-Flux-Residual          L2-NORM 
          0                 1           6            81   45     1       0.3129622107E+01      81   46    1         0.9691561081E+05      0.4876692955E+06
          0                 2           4            81   45     1      -0.2849673759E+00      76   48    1        -0.1028959738E+05      0.5057149533E+05
          0                 3           2            55  100     3      -0.4478427572E-01      55  100    3        -0.1193470005E+04      0.1340291390E+04
          0                 4           2            55  100     3       0.3646588537E-01      55  100    3         0.1066772571E+04      0.1083880936E+04
          0                 5           2            55  100     3      -0.2405935354E-01      55  100    3        -0.7717812384E+03      0.7794222433E+03
          0                 6           2            55  100     3       0.1261660049E-01      55  100    3         0.4432036418E+03      0.4456753393E+03
          0                 7           2            55  100     3      -0.5024911349E-02      55  100    3        -0.1930414944E+03      0.1935747527E+03

    ------------------------------------------------
       NWT REQUIRED            7 OUTER ITERATIONS 
       AND A TOTAL OF         20 INNER ITERATIONS.
    ------------------------------------------------

 NO OUTPUT CONTROL FOR STRESS PERIOD   52   TIME STEP    6
 
 SOLVING FOR HEAD 
                                                   Max.-Head-Change                         Max.-Flux-Residual
  Residual-Control   Outer-Iter.   Inner-Iter.     Column Row Layer    Maximum-Head-Change  Column Row Layer    Maximum-Flux-Residual          L2-NORM 
          0                 1           6            81   45     1       0.3006575272E+01      81   46    1         0.9380427804E+05      0.4679725606E+06
          0                 2           4            52   47     2      -0.3223642645E+00      58   31    2         0.1027638016E+05      0.4872419128E+05
          0                 3           2            55  100     3      -0.3955074848E-01      59   77    1        -0.1188075694E+04      0.1679632209E+04
          0                 4           2            55  100     3       0.3192224525E-01      55  100    3         0.9338323207E+03      0.9709766222E+03
          0                 5           2            55  100     3      -0.2085711547E-01      55  100    3        -0.6690676482E+03      0.6830794463E+03
          0                 6           2            55  100     3       0.1081021629E-01      55  100    3         0.3797666533E+03      0.3842719322E+03
          0                 7           2            55  100     3      -0.4247300114E-02      55  100    3        -0.1631812790E+03      0.1641474206E+03

    ------------------------------------------------
       NWT REQUIRED            7 OUTER ITERATIONS 
       AND A TOTAL OF         20 INNER ITERATIONS.
    ------------------------------------------------

 NO OUTPUT CONTROL FOR STRESS PERIOD   52   TIME STEP    7
 
 SOLVING FOR HEAD 
                                                   Max.-Head-Change                         Max.-Flux-Residual
  Residual-Control   Outer-Iter.   Inner-Iter.     Column Row Layer    Maximum-Head-Change  Column Row Layer    Maximum-Flux-Residual          L2-NORM 
          0                 1           6            81   45     1       0.2888382527E+01      81   46    1         0.9076376358E+05      0.4508328446E+06
          0                 2           4            81   45     1      -0.2629606419E+00      81   46    1        -0.9093614769E+04      0.4576398540E+05
          0                 3           2            55  100     3      -0.3640125244E-01      55  100    3        -0.9700408641E+03      0.1092586103E+04
          0                 4           2            55  100     3       0.2913508460E-01      55  100    3         0.8523349972E+03      0.8920162574E+03
          0                 5           2            55  100     3      -0.1885844143E-01      55  100    3        -0.6049944394E+03      0.6226792654E+03
          0                 6           2            55  100     3       0.9666639406E-02      55  100    3         0.3396222663E+03      0.3453155978E+03

    ------------------------------------------------
       NWT REQUIRED            6 OUTER ITERATIONS 
       AND A TOTAL OF         18 INNER ITERATIONS.
    ------------------------------------------------

 NO OUTPUT CONTROL FOR STRESS PERIOD   52   TIME STEP    8
 
 SOLVING FOR HEAD 
                                                   Max.-Head-Change                         Max.-Flux-Residual
  Residual-Control   Outer-Iter.   Inner-Iter.     Column Row Layer    Maximum-Head-Change  Column Row Layer    Maximum-Flux-Residual          L2-NORM 
          0                 1           6            81   45     1       0.2775375133E+01      81   46    1         0.8779004198E+05      0.4363190741E+06
          0                 2           4            79   58     2       0.2984174711E+00      79   58    2         0.1123444619E+05      0.4643687179E+05
          0                 3           2            55  100     3      -0.3927406557E-01      42   31    1        -0.1589901562E+04      0.1942947569E+04
          0                 4           2            55  100     3       0.3120877984E-01      55  100    3         0.9131688437E+03      0.9646566277E+03
          0                 5           2            55  100     3      -0.2003209095E-01      55  100    3        -0.6427568261E+03      0.6607666813E+03
          0                 6           2            55  100     3       0.1017320965E-01      55  100    3         0.3574761477E+03      0.3631910598E+03
          0                 7           2            55  100     3      -0.3899824491E-02      55  100    3        -0.1498707478E+03      0.1510807256E+03

    ------------------------------------------------
       NWT REQUIRED            7 OUTER ITERATIONS 
       AND A TOTAL OF         20 INNER ITERATIONS.
    ------------------------------------------------

 NO OUTPUT CONTROL FOR STRESS PERIOD   52   TIME STEP    9
 
 SOLVING FOR HEAD 
                                                   Max.-Head-Change                         Max.-Flux-Residual
  Residual-Control   Outer-Iter.   Inner-Iter.     Column Row Layer    Maximum-Head-Change  Column Row Layer    Maximum-Flux-Residual          L2-NORM 
          0                 1           6            81   45     1       0.2667215257E+01      81   46    1         0.8489315360E+05      0.4236769793E+06
          0                 2           4            81   45     1      -0.2427910644E+00      81   46    1        -0.8504361623E+04      0.4312732384E+05
          0                 3           2            55  100     3      -0.3445063280E-01      49   41    1        -0.1189903495E+04      0.1999624391E+04
          0                 4           2            55  100     3       0.2714338323E-01      71   11    3        -0.9158449116E+03      0.1246833851E+04
          0                 5           2            55  100     3      -0.1726036513E-01      71   11    3        -0.9153846261E+03      0.1080067344E+04
          0                 6           2            55  100     3       0.8667369173E-02      71   11    3        -0.9149233328E+03      0.9662499929E+03
          0                 7           2            55  100     3      -0.3279072892E-02      71   11    3        -0.9144595703E+03      0.9232795256E+03
          0                 8           2            55  100     3       0.8818415220E-03      71   11    3        -0.9139931645E+03      0.9147482700E+03
          0                 9           1            55  100     3      -0.1490390413E-03      71   11    3        -0.9135241056E+03      0.9135496747E+03
          0                10           1            71   11     3      -0.2241473461E-04      71   11    3        -0.9130519459E+03      0.9130521783E+03
                                                   Max.-Head-Change                         Max.-Flux-Residual
  Residual-Control   Outer-Iter.   Inner-Iter.     Column Row Layer    Maximum-Head-Change  Column Row Layer    Maximum-Flux-Residual          L2-NORM 
          0                11           1            71   11     3      -0.2240302591E-04      71   11    3        -0.9125775883E+03      0.9125776325E+03
          0                12           1            71   11     3      -0.2239125168E-04      71   11    3        -0.9121006233E+03      0.9121006674E+03
          0                13           1            71   11     3      -0.2237941292E-04      71   11    3        -0.9116210041E+03      0.9116210482E+03
          0                14           1            71   11     3      -0.2236751014E-04      71   11    3        -0.9111387565E+03      0.9111388005E+03
          0                15           1            71   11     3      -0.2235554283E-04      71   11    3        -0.9106538880E+03      0.9106539320E+03
          0                16           1            71   11     3      -0.2234351149E-04      71   11    3        -0.9101664047E+03      0.9101664487E+03
          0                17           1            71   11     3      -0.2233141612E-04      71   11    3        -0.9096763126E+03      0.9096763567E+03
          0                18           1            71   11     3      -0.2231925722E-04      71   11    3        -0.9091836179E+03      0.9091836619E+03
          0                19           1            71   11     3      -0.2230703429E-04      71   11    3        -0.9086883265E+03      0.9086883705E+03
          0                20           1            71   11     3      -0.2229474834E-04      71   11    3        -0.9081904446E+03      0.9081904886E+03
                                                   Max.-Head-Change                         Max.-Flux-Residual
  Residual-Control   Outer-Iter.   Inner-Iter.     Column Row Layer    Maximum-Head-Change  Column Row Layer    Maximum-Flux-Residual          L2-NORM 
          0                21           1            71   11     3      -0.2228239835E-04      71   11    3        -0.9076899784E+03      0.9076900223E+03
          0                22           1            71   11     3      -0.2226998584E-04      71   11    3        -0.9071869338E+03      0.9071869778E+03
          0                23           1            71   11     3      -0.2225751030E-04      71   11    3        -0.9066813173E+03      0.9066813612E+03
          0                24           1            71   11     3      -0.2224497174E-04      71   11    3        -0.9061731349E+03      0.9061731787E+03
          0                25           1            71   11     3      -0.2223237014E-04      71   11    3        -0.9056623929E+03      0.9056624367E+03
          0                26           1            71   11     3      -0.2221970602E-04      71   11    3        -0.9051490976E+03      0.9051491414E+03
          0                27           1            71   11     3      -0.2220697987E-04      71   11    3        -0.9046332552E+03      0.9046332990E+03
          0                28           1            71   11     3      -0.2219419119E-04      71   11    3        -0.9041148721E+03      0.9041149159E+03
          0                29           1            71   11     3      -0.2218134049E-04      71   11    3        -0.9035939546E+03      0.9035939983E+03
          0                30           1            71   11     3      -0.2216842825E-04      71   11    3        -0.9030705091E+03      0.9030705528E+03
                                                   Max.-Head-Change                         Max.-Flux-Residual
  Residual-Control   Outer-Iter.   Inner-Iter.     Column Row Layer    Maximum-Head-Change  Column Row Layer    Maximum-Flux-Residual          L2-NORM 
          0                31           2            71   11     3      -0.4190627057E-01      71   11    3        -0.9025453956E+03      0.9025454393E+03
          0                32           2            71   11     3       0.3809351464E-02      71   11    3         0.1038733325E+03      0.1085780193E+03

    ------------------------------------------------
       NWT REQUIRED           32 OUTER ITERATIONS 
       AND A TOTAL OF         48 INNER ITERATIONS.
    ------------------------------------------------

 NO OUTPUT CONTROL FOR STRESS PERIOD   52   TIME STEP   10
 
 SOLVING FOR HEAD 
                                                   Max.-Head-Change                         Max.-Flux-Residual
  Residual-Control   Outer-Iter.   Inner-Iter.     Column Row Layer    Maximum-Head-Change  Column Row Layer    Maximum-Flux-Residual          L2-NORM 
          0                 1           6            81   45     1       0.2563719030E+01      81   46    1         0.8207401102E+05      0.4128263327E+06
          0                 2           4            65    4     2      -0.2122752268E+01      81   46    1        -0.8221440780E+04      0.4230001047E+05
          0                 3           2            39   33     3      -0.7562063857E-01      55  100    3        -0.8687920201E+03      0.1208546982E+04
          0                 4           2            55  100     3       0.2548166174E-01      55  100    3         0.7457152083E+03      0.7894637914E+03
          0                 5           2            55  100     3      -0.1606222418E-01      55  100    3        -0.5154716703E+03      0.5347144753E+03
          0                 6           2            55  100     3       0.7982963896E-02      55  100    3         0.2805738176E+03      0.2866598529E+03

    ------------------------------------------------
       NWT REQUIRED            6 OUTER ITERATIONS 
       AND A TOTAL OF         18 INNER ITERATIONS.
    ------------------------------------------------

 NO OUTPUT CONTROL FOR STRESS PERIOD   52   TIME STEP   11
 
 SOLVING FOR HEAD 
                                                   Max.-Head-Change                         Max.-Flux-Residual
  Residual-Control   Outer-Iter.   Inner-Iter.     Column Row Layer    Maximum-Head-Change  Column Row Layer    Maximum-Flux-Residual          L2-NORM 
          0                 1           6            65    4     2      -0.3074586297E+01      81   46    1         0.7933311651E+05      0.4033201241E+06
          0                 2           4            81   45     1      -0.2243624740E+00      81   46    1        -0.7946402020E+04      0.4141910683E+05
          0                 3           2            28   65     2      -0.4052404568E-01      28   65    2        -0.1422317284E+04      0.1724938515E+04
          0                 4           2            55  100     3       0.2632036102E-01      55  100    3         0.7703852380E+03      0.8216863594E+03
          0                 5           2            55  100     3      -0.1645701046E-01      55  100    3        -0.5282266896E+03      0.5463816625E+03
          0                 6           2            55  100     3       0.8104341523E-02      55  100    3         0.2848827393E+03      0.2905442400E+03

    ------------------------------------------------
       NWT REQUIRED            6 OUTER ITERATIONS 
       AND A TOTAL OF         18 INNER ITERATIONS.
    ------------------------------------------------

 OUTPUT CONTROL FOR STRESS PERIOD   52   TIME STEP   12
    SAVE BUDGET
 UBDSV1 SAVING "         STORAGE" ON UNIT  39 AT TIME STEP 12, STRESS PERIOD  52
 UBDSV2 SAVING "   CONSTANT HEAD" ON UNIT  39 AT TIME STEP 12, STRESS PERIOD  52
 UBDSV1 SAVING "FLOW RIGHT FACE " ON UNIT  39 AT TIME STEP 12, STRESS PERIOD  52
 UBDSV1 SAVING "FLOW FRONT FACE " ON UNIT  39 AT TIME STEP 12, STRESS PERIOD  52
 UBDSV1 SAVING "FLOW LOWER FACE " ON UNIT  39 AT TIME STEP 12, STRESS PERIOD  52
 UBDSV4 SAVING "           WELLS" ON UNIT  39 AT TIME STEP 12, STRESS PERIOD  52
 UBDSV3 SAVING "              ET" ON UNIT  39 AT TIME STEP 12, STRESS PERIOD  52
 UBDSV3 SAVING "        RECHARGE" ON UNIT  39 AT TIME STEP 12, STRESS PERIOD  52
1
  VOLUMETRIC BUDGET FOR ENTIRE MODEL AT END OF TIME STEP   12, STRESS PERIOD  52
  ------------------------------------------------------------------------------

     CUMULATIVE VOLUMES      L**3       RATES FOR THIS TIME STEP      L**3/T
     ------------------                 ------------------------

           IN:                                      IN:
           ---                                      ---
             STORAGE =335120138240.0000               STORAGE =    14681100.0000
       CONSTANT HEAD = 32420085760.0000         CONSTANT HEAD =     2606674.5000
               WELLS = 23278127104.0000                 WELLS =     1225642.0000
                  ET =           0.0000                    ET =           0.0000
            RECHARGE =380853518336.0000              RECHARGE =    22934732.0000

            TOTAL IN =771671851008.0000              TOTAL IN =    41448148.0000

          OUT:                                     OUT:
          ----                                     ----
             STORAGE = 66574540800.0000               STORAGE =     4061920.0000
       CONSTANT HEAD = 61717164032.0000         CONSTANT HEAD =     1963492.0000
               WELLS =624376807424.0000                 WELLS =    34270708.0000
                  ET = 19003025408.0000                    ET =     1152162.6250
            RECHARGE =           0.0000              RECHARGE =           0.0000

           TOTAL OUT =771671523328.0000             TOTAL OUT =    41448284.0000

            IN - OUT =      327680.0000              IN - OUT =        -136.0000

 PERCENT DISCREPANCY =           0.00     PERCENT DISCREPANCY =          -0.00






         TIME SUMMARY AT END OF TIME STEP   12 IN STRESS PERIOD   52
                    SECONDS     MINUTES      HOURS       DAYS        YEARS
                    -----------------------------------------------------------
   TIME STEP LENGTH 2.62800E+06  43800.      730.00      30.417     8.32763E-02
 STRESS PERIOD TIME 3.15360E+07 5.25600E+05  8760.0      365.00     0.99932    
         TOTAL TIME 1.64100E+09 2.73499E+07 4.55832E+05  18993.      52.000    
1
1
                            STRESS PERIOD NO.   53, LENGTH =   366.0000    
                            -----------------------------------------------

                              NUMBER OF TIME STEPS =    12

                               MULTIPLIER FOR DELT =     1.000

                            INITIAL TIME STEP SIZE =   30.50000    

   1828 WELLS

 REUSING SURF FROM LAST STRESS PERIOD

 REUSING EVTR FROM LAST STRESS PERIOD

 REUSING EXDP FROM LAST STRESS PERIOD



                           RECHARGE
 READING ON UNIT   16 WITH FORMAT: (15F5.0)            


     63 TIME-VARIANT SPECIFIED-HEAD CELLS
 
 SOLVING FOR HEAD 
                                                   Max.-Head-Change                         Max.-Flux-Residual
  Residual-Control   Outer-Iter.   Inner-Iter.     Column Row Layer    Maximum-Head-Change  Column Row Layer    Maximum-Flux-Residual          L2-NORM 
          0                 1           7            87   54     3       0.2693807796E+02      61   85    3        -0.1497059572E+06      0.8214314100E+06
          0                 2           5            22   44     2      -0.2704325172E+01      22   44    2        -0.5447232953E+05      0.1220236086E+06
          0                 3           3            22   43     2       0.1202779805E+00      56   81    2        -0.3698895090E+04      0.5025573288E+04
          0                 4           2            55   99     3       0.5637046535E-01      55   99    3         0.1603968051E+04      0.2169547087E+04
          0                 5           2            55   99     3      -0.3101423265E-01      55   99    3        -0.9676206528E+03      0.1278751628E+04
          0                 6           2            55   99     3       0.1324592594E-01      55   99    3         0.4525089678E+03      0.5852373077E+03
          0                 7           2            55   99     3      -0.4080588920E-02      55   99    3        -0.1524418869E+03      0.1935288763E+03

    ------------------------------------------------
       NWT REQUIRED            7 OUTER ITERATIONS 
       AND A TOTAL OF         23 INNER ITERATIONS.
    ------------------------------------------------

 NO OUTPUT CONTROL FOR STRESS PERIOD   53   TIME STEP    1
 
 SOLVING FOR HEAD 
                                                   Max.-Head-Change                         Max.-Flux-Residual
  Residual-Control   Outer-Iter.   Inner-Iter.     Column Row Layer    Maximum-Head-Change  Column Row Layer    Maximum-Flux-Residual          L2-NORM 
          0                 1           7            87   54     3       0.4202075742E+01      61   85    2        -0.7389833660E+05      0.5689146334E+06
          0                 2           5            56   81     2      -0.2310544164E+01      25   22    1        -0.7632606031E+04      0.5840339244E+05
          0                 3           2            56   81     2       0.1923419334E+00      55   99    3        -0.1173460201E+04      0.1526306097E+04
          0                 4           2            55   99     3       0.3100497408E-01      55   99    3         0.8822173019E+03      0.1001110813E+04
          0                 5           2            55   99     3      -0.1675573363E-01      55   99    3        -0.5227510291E+03      0.5925444876E+03
          0                 6           2            55   99     3       0.6971042828E-02      55   99    3         0.2381447911E+03      0.2690835236E+03

    ------------------------------------------------
       NWT REQUIRED            6 OUTER ITERATIONS 
       AND A TOTAL OF         20 INNER ITERATIONS.
    ------------------------------------------------

 NO OUTPUT CONTROL FOR STRESS PERIOD   53   TIME STEP    2
 
 SOLVING FOR HEAD 
                                                   Max.-Head-Change                         Max.-Flux-Residual
  Residual-Control   Outer-Iter.   Inner-Iter.     Column Row Layer    Maximum-Head-Change  Column Row Layer    Maximum-Flux-Residual          L2-NORM 
          0                 1           7            53  107     3       0.2800777333E+01      61   85    2        -0.6444097536E+05      0.4950329442E+06
          0                 2           5            66   52     1      -0.1469177002E+01      66   52    1        -0.7601966081E+04      0.5063221108E+05
          0                 3           2            66   52     1       0.1249188327E+00      55   99    3        -0.7894521821E+03      0.1338215317E+04
          0                 4           2            55   99     3       0.2062315256E-01      55   99    3         0.5867923303E+03      0.5881303379E+03
          0                 5           2            55   99     3      -0.1101805661E-01      55   99    3        -0.3437295835E+03      0.3439353859E+03
          0                 6           2            55   99     3       0.4511955314E-02      55   99    3         0.1541319935E+03      0.1542023430E+03

    ------------------------------------------------
       NWT REQUIRED            6 OUTER ITERATIONS 
       AND A TOTAL OF         20 INNER ITERATIONS.
    ------------------------------------------------

 NO OUTPUT CONTROL FOR STRESS PERIOD   53   TIME STEP    3
 
 SOLVING FOR HEAD 
                                                   Max.-Head-Change                         Max.-Flux-Residual
  Residual-Control   Outer-Iter.   Inner-Iter.     Column Row Layer    Maximum-Head-Change  Column Row Layer    Maximum-Flux-Residual          L2-NORM 
          0                 1           6            53  107     3       0.2594004559E+01      61   85    2        -0.5668754798E+05      0.4560186258E+06
          0                 2           4            90   67     2       0.2097458587E+01      90   67    2         0.1928916625E+05      0.5037855577E+05
          0                 3           3            90   67     2      -0.1906307049E+00      57   74    1        -0.4759874207E+04      0.5223919501E+04
          0                 4           2            55   99     3       0.1507852327E-01      55   99    3         0.4290156354E+03      0.6398892923E+03
          0                 5           2            55   99     3      -0.7982582278E-02      55   99    3        -0.2490205885E+03      0.2795912307E+03

    ------------------------------------------------
       NWT REQUIRED            5 OUTER ITERATIONS 
       AND A TOTAL OF         17 INNER ITERATIONS.
    ------------------------------------------------

 NO OUTPUT CONTROL FOR STRESS PERIOD   53   TIME STEP    4
 
 SOLVING FOR HEAD 
                                                   Max.-Head-Change                         Max.-Flux-Residual
  Residual-Control   Outer-Iter.   Inner-Iter.     Column Row Layer    Maximum-Head-Change  Column Row Layer    Maximum-Flux-Residual          L2-NORM 
          0                 1           6            53  107     3       0.2401115545E+01      61   85    2        -0.5087484521E+05      0.4322639553E+06
          0                 2           4            57   82     3       0.2605434373E+00      57   82    3         0.8216999701E+04      0.4404988358E+05
          0                 3           2            55   99     3      -0.1529028208E-01      55   99    3        -0.3962483308E+03      0.5708039259E+03
          0                 4           2            55   99     3       0.1017779775E-01      55   99    3         0.2895670623E+03      0.4020975849E+03
          0                 5           2            55   99     3      -0.5340165111E-02      55   99    3        -0.1665829738E+03      0.2337877642E+03

    ------------------------------------------------
       NWT REQUIRED            5 OUTER ITERATIONS 
       AND A TOTAL OF         16 INNER ITERATIONS.
    ------------------------------------------------

 NO OUTPUT CONTROL FOR STRESS PERIOD   53   TIME STEP    5
 
 SOLVING FOR HEAD 
                                                   Max.-Head-Change                         Max.-Flux-Residual
  Residual-Control   Outer-Iter.   Inner-Iter.     Column Row Layer    Maximum-Head-Change  Column Row Layer    Maximum-Flux-Residual          L2-NORM 
          0                 1           6            53  107     3       0.2221950480E+01      61   85    2        -0.4652444419E+05      0.4150637829E+06
          0                 2           4            81   59     1      -0.3078117329E+00      60   65    2         0.1200336042E+05      0.4382041303E+05
          0                 3           3            60   65     1      -0.6155784953E-01      60   65    1        -0.5560058213E+04      0.5614026745E+04
          0                 4           2            55  100     3       0.1011975806E-01      60   65    1        -0.5013335030E+03      0.6266441558E+03
          0                 5           2            55  100     3      -0.5385595518E-02      55  100    3        -0.1723458947E+03      0.2214486140E+03

    ------------------------------------------------
       NWT REQUIRED            5 OUTER ITERATIONS 
       AND A TOTAL OF         17 INNER ITERATIONS.
    ------------------------------------------------

 NO OUTPUT CONTROL FOR STRESS PERIOD   53   TIME STEP    6
 
 SOLVING FOR HEAD 
                                                   Max.-Head-Change                         Max.-Flux-Residual
  Residual-Control   Outer-Iter.   Inner-Iter.     Column Row Layer    Maximum-Head-Change  Column Row Layer    Maximum-Flux-Residual          L2-NORM 
          0                 1           6            81   59     1      -0.4851263700E+01      88   65    1         0.4359349759E+05      0.4018482441E+06
          0                 2           4            58   83     2      -0.2943904474E+01      55   40    2         0.1072280854E+05      0.4421305573E+05
          0                 3           2            58   83     2       0.2168215068E+00      58   83    2         0.7804410787E+03      0.1438857259E+04
          0                 4           2            55  100     3       0.9929794497E-02      55  100    3         0.2899117727E+03      0.3537685327E+03

    ------------------------------------------------
       NWT REQUIRED            4 OUTER ITERATIONS 
       AND A TOTAL OF         14 INNER ITERATIONS.
    ------------------------------------------------

 NO OUTPUT CONTROL FOR STRESS PERIOD   53   TIME STEP    7
 
 SOLVING FOR HEAD 
                                                   Max.-Head-Change                         Max.-Flux-Residual
  Residual-Control   Outer-Iter.   Inner-Iter.     Column Row Layer    Maximum-Head-Change  Column Row Layer    Maximum-Flux-Residual          L2-NORM 
          0                 1           6            53  107     3       0.1902789105E+01      91   67    2         0.4199617348E+05      0.3916179757E+06
          0                 2           4            91   67     1      -0.1080272008E+01      91   67    1        -0.4749367740E+05      0.6191660750E+05
          0                 3           2            83   60     1       0.5273478336E-01      55  100    3        -0.4996522615E+03      0.6685665839E+03
          0                 4           2            55  100     3       0.1251944854E-01      55  100    3         0.3655383643E+03      0.4390447338E+03
          0                 5           2            55  100     3      -0.6579936894E-02      55  100    3        -0.2106502799E+03      0.2514432394E+03

    ------------------------------------------------
       NWT REQUIRED            5 OUTER ITERATIONS 
       AND A TOTAL OF         16 INNER ITERATIONS.
    ------------------------------------------------

 NO OUTPUT CONTROL FOR STRESS PERIOD   53   TIME STEP    8
 
 SOLVING FOR HEAD 
                                                   Max.-Head-Change                         Max.-Flux-Residual
  Residual-Control   Outer-Iter.   Inner-Iter.     Column Row Layer    Maximum-Head-Change  Column Row Layer    Maximum-Flux-Residual          L2-NORM 
          0                 1           6            83   60     1      -0.3306054183E+01      88   65    1         0.4019315394E+05      0.3824570260E+06
          0                 2           4            61   81     1      -0.2853060102E+00      58   61    2         0.1146613712E+05      0.4239278347E+05
          0                 3           2            61   81     1       0.2546861404E-01      61   81    1         0.8218773845E+03      0.9790625389E+03
          0                 4           2            55  100     3       0.1013942973E-01      55  100    3         0.2960612302E+03      0.3580218657E+03
          0                 5           2            55  100     3      -0.5289891779E-02      55  100    3        -0.1693576751E+03      0.2035227484E+03

    ------------------------------------------------
       NWT REQUIRED            5 OUTER ITERATIONS 
       AND A TOTAL OF         16 INNER ITERATIONS.
    ------------------------------------------------

 NO OUTPUT CONTROL FOR STRESS PERIOD   53   TIME STEP    9
 
 SOLVING FOR HEAD 
                                                   Max.-Head-Change                         Max.-Flux-Residual
  Residual-Control   Outer-Iter.   Inner-Iter.     Column Row Layer    Maximum-Head-Change  Column Row Layer    Maximum-Flux-Residual          L2-NORM 
          0                 1           6            53  107     3       0.1631344712E+01      88   65    1         0.3862083036E+05      0.3747247606E+06
          0                 2           4            57   82     2      -0.4531591476E+00      25   22    2         0.4265748023E+04      0.3834555213E+05
          0                 3           2            62   58     1      -0.5512374953E-01      62   58    1        -0.3116844557E+04      0.3213568714E+04
          0                 4           2            55  100     3       0.8879957857E-02      62   58    1        -0.2810682212E+03      0.4229245868E+03

    ------------------------------------------------
       NWT REQUIRED            4 OUTER ITERATIONS 
       AND A TOTAL OF         14 INNER ITERATIONS.
    ------------------------------------------------

 NO OUTPUT CONTROL FOR STRESS PERIOD   53   TIME STEP   10
 
 SOLVING FOR HEAD 
                                                   Max.-Head-Change                         Max.-Flux-Residual
  Residual-Control   Outer-Iter.   Inner-Iter.     Column Row Layer    Maximum-Head-Change  Column Row Layer    Maximum-Flux-Residual          L2-NORM 
          0                 1           6            57   82     2      -0.1939297578E+01      88   65    1         0.3712845079E+05      0.3683794923E+06
          0                 2           4            57   82     2       0.1717718643E+00      75   48    1        -0.4931360486E+04      0.3787196755E+05
          0                 3           2            55  100     3      -0.1616945598E-01      55  100    3        -0.4301987998E+03      0.6540431181E+03
          0                 4           2            55  100     3       0.1059989129E-01      55  100    3         0.3095502251E+03      0.3766711262E+03
          0                 5           2            55  100     3      -0.5466949498E-02      55  100    3        -0.1750457651E+03      0.2116752827E+03

    ------------------------------------------------
       NWT REQUIRED            5 OUTER ITERATIONS 
       AND A TOTAL OF         16 INNER ITERATIONS.
    ------------------------------------------------

 NO OUTPUT CONTROL FOR STRESS PERIOD   53   TIME STEP   11
 
 SOLVING FOR HEAD 
                                                   Max.-Head-Change                         Max.-Flux-Residual
  Residual-Control   Outer-Iter.   Inner-Iter.     Column Row Layer    Maximum-Head-Change  Column Row Layer    Maximum-Flux-Residual          L2-NORM 
          0                 1           6            55   40     1      -0.1411589590E+01      88   65    1         0.3571030298E+05      0.3627458782E+06
          0                 2           4            79   58     1      -0.6731269902E+00      19   17    1        -0.4528989535E+04      0.3697174387E+05
          0                 3           2            79   58     1       0.5238494187E-01      55  100    3        -0.3475981887E+03      0.6314554459E+03
          0                 4           2            55  100     3       0.8514829416E-02      55  100    3         0.2486594811E+03      0.3074368802E+03

    ------------------------------------------------
       NWT REQUIRED            4 OUTER ITERATIONS 
       AND A TOTAL OF         14 INNER ITERATIONS.
    ------------------------------------------------

 OUTPUT CONTROL FOR STRESS PERIOD   53   TIME STEP   12
    SAVE BUDGET
 UBDSV1 SAVING "         STORAGE" ON UNIT  39 AT TIME STEP 12, STRESS PERIOD  53
 UBDSV2 SAVING "   CONSTANT HEAD" ON UNIT  39 AT TIME STEP 12, STRESS PERIOD  53
 UBDSV1 SAVING "FLOW RIGHT FACE " ON UNIT  39 AT TIME STEP 12, STRESS PERIOD  53
 UBDSV1 SAVING "FLOW FRONT FACE " ON UNIT  39 AT TIME STEP 12, STRESS PERIOD  53
 UBDSV1 SAVING "FLOW LOWER FACE " ON UNIT  39 AT TIME STEP 12, STRESS PERIOD  53
 UBDSV4 SAVING "           WELLS" ON UNIT  39 AT TIME STEP 12, STRESS PERIOD  53
 UBDSV3 SAVING "              ET" ON UNIT  39 AT TIME STEP 12, STRESS PERIOD  53
 UBDSV3 SAVING "        RECHARGE" ON UNIT  39 AT TIME STEP 12, STRESS PERIOD  53
1
  VOLUMETRIC BUDGET FOR ENTIRE MODEL AT END OF TIME STEP   12, STRESS PERIOD  53
  ------------------------------------------------------------------------------

     CUMULATIVE VOLUMES      L**3       RATES FOR THIS TIME STEP      L**3/T
     ------------------                 ------------------------

           IN:                                      IN:
           ---                                      ---
             STORAGE =340519714816.0000               STORAGE =    14078419.0000
       CONSTANT HEAD = 33324343296.0000         CONSTANT HEAD =     2450390.7500
               WELLS = 23726712832.0000                 WELLS =     1225642.0000
                  ET =           0.0000                    ET =           0.0000
            RECHARGE =389053644800.0000              RECHARGE =    22405218.0000

            TOTAL IN =786624413696.0000              TOTAL IN =    40159668.0000

          OUT:                                     OUT:
          ----                                     ----
             STORAGE = 68551180288.0000               STORAGE =     4674101.0000
       CONSTANT HEAD = 62490419200.0000         CONSTANT HEAD =     2145207.7500
               WELLS =636164636672.0000                 WELLS =    32205488.0000
                  ET = 19418034176.0000                    ET =     1135115.3750
            RECHARGE =           0.0000              RECHARGE =           0.0000

           TOTAL OUT =786624282624.0000             TOTAL OUT =    40159912.0000

            IN - OUT =      131072.0000              IN - OUT =        -244.0000

 PERCENT DISCREPANCY =           0.00     PERCENT DISCREPANCY =          -0.00






         TIME SUMMARY AT END OF TIME STEP   12 IN STRESS PERIOD   53
                    SECONDS     MINUTES      HOURS       DAYS        YEARS
                    -----------------------------------------------------------
   TIME STEP LENGTH 2.63520E+06  43920.      732.00      30.500     8.35044E-02
 STRESS PERIOD TIME 3.16224E+07 5.27040E+05  8784.0      366.00      1.0021    
         TOTAL TIME 1.67262E+09 2.78770E+07 4.64616E+05  19359.      53.002    
1
1
                            STRESS PERIOD NO.   54, LENGTH =   365.0000    
                            -----------------------------------------------

                              NUMBER OF TIME STEPS =    12

                               MULTIPLIER FOR DELT =     1.000

                            INITIAL TIME STEP SIZE =   30.41667    

   1738 WELLS

 REUSING SURF FROM LAST STRESS PERIOD

 REUSING EVTR FROM LAST STRESS PERIOD

 REUSING EXDP FROM LAST STRESS PERIOD



                           RECHARGE
 READING ON UNIT   16 WITH FORMAT: (15F5.0)            


     63 TIME-VARIANT SPECIFIED-HEAD CELLS
 
 SOLVING FOR HEAD 
                                                   Max.-Head-Change                         Max.-Flux-Residual
  Residual-Control   Outer-Iter.   Inner-Iter.     Column Row Layer    Maximum-Head-Change  Column Row Layer    Maximum-Flux-Residual          L2-NORM 
          0                 1           7            92   77     2       0.1112753148E+03      83   51    1         0.2826403164E+06      0.2041972903E+07
          0                 2           5            65    7     2      -0.5416475926E+02      65    7    2        -0.1497106334E+07      0.2345582571E+07
          0                 3           3            66    7     2       0.1977653067E+02      65    7    2        -0.4287622714E+05      0.6438511905E+05
          0                 4           3            66    4     2      -0.7951366679E+01      65    3    2        -0.2483648150E+06      0.4133847941E+06
          0                 5           2            66    4     2      -0.1390095787E+01      65    3    2        -0.4318727159E+05      0.7242380062E+05
          0                 6           2            66    4     2      -0.2383012913E+00      65    3    2        -0.7406145091E+04      0.1369241737E+05
          0                 7           2            55  100     3      -0.7550189262E-01      55  100    3        -0.2906325182E+04      0.3588262046E+04
          0                 8           2            55  100     3       0.2629117943E-01      55  100    3         0.1104877817E+04      0.1161886637E+04
          0                 9           2            55  100     3      -0.6119004889E-02      55  100    3        -0.2803893356E+03      0.2870385305E+03

    ------------------------------------------------
       NWT REQUIRED            9 OUTER ITERATIONS 
       AND A TOTAL OF         28 INNER ITERATIONS.
    ------------------------------------------------

 NO OUTPUT CONTROL FOR STRESS PERIOD   54   TIME STEP    1
 
 SOLVING FOR HEAD 
                                                   Max.-Head-Change                         Max.-Flux-Residual
  Residual-Control   Outer-Iter.   Inner-Iter.     Column Row Layer    Maximum-Head-Change  Column Row Layer    Maximum-Flux-Residual          L2-NORM 
          0                 1           7            84   56     3       0.1341325016E+02      83   51    1         0.2419713561E+06      0.1565206396E+07
          0                 2           5            83   52     2       0.2113441390E+01      69   21    1        -0.6528900585E+05      0.2098389462E+06
          0                 3           3            83   52     2      -0.1921662756E+00      17   15    2         0.5286458717E+04      0.9710825033E+04
          0                 4           2            55  100     3       0.1574206934E+00      55  100    3         0.4616393110E+04      0.4661251036E+04
          0                 5           2            55  100     3      -0.1083418745E+00      55  100    3        -0.3483216271E+04      0.3484841011E+04
          0                 6           2            55  100     3       0.6079607660E-01      55  100    3         0.2140054724E+04      0.2140087529E+04
          0                 7           2            55  100     3      -0.2569223707E-01      55  100    3        -0.9890067221E+03      0.9890072482E+03
          0                 8           2            55  100     3       0.8128824085E-02      55  100    3         0.3416474917E+03      0.3416476439E+03

    ------------------------------------------------
       NWT REQUIRED            8 OUTER ITERATIONS 
       AND A TOTAL OF         25 INNER ITERATIONS.
    ------------------------------------------------

 NO OUTPUT CONTROL FOR STRESS PERIOD   54   TIME STEP    2
 
 SOLVING FOR HEAD 
                                                   Max.-Head-Change                         Max.-Flux-Residual
  Residual-Control   Outer-Iter.   Inner-Iter.     Column Row Layer    Maximum-Head-Change  Column Row Layer    Maximum-Flux-Residual          L2-NORM 
          0                 1           7            92   52     1       0.5844605268E+01      92   52    1         0.2096939730E+06      0.1359201865E+07
          0                 2           5            82   52     1      -0.1914598490E+01      82   52    1        -0.8743523744E+05      0.1793981232E+06
          0                 3           3            89   65     2      -0.1639120009E+00      17   15    2        -0.2713922362E+04      0.4530897243E+04
          0                 4           2            55  100     3       0.7306365930E-01      55  100    3         0.2143024754E+04      0.2165476176E+04
          0                 5           2            55  100     3      -0.4929388483E-01      55  100    3        -0.1584925432E+04      0.1586654305E+04
          0                 6           2            55  100     3       0.2672703892E-01      55  100    3         0.9408804205E+03      0.9409281515E+03
          0                 7           2            55  100     3      -0.1098695285E-01      55  100    3        -0.4229504141E+03      0.4229506769E+03
          0                 8           2            55  100     3       0.3314229021E-02      55  100    3         0.1393033367E+03      0.1393034050E+03

    ------------------------------------------------
       NWT REQUIRED            8 OUTER ITERATIONS 
       AND A TOTAL OF         25 INNER ITERATIONS.
    ------------------------------------------------

 NO OUTPUT CONTROL FOR STRESS PERIOD   54   TIME STEP    3
 
 SOLVING FOR HEAD 
                                                   Max.-Head-Change                         Max.-Flux-Residual
  Residual-Control   Outer-Iter.   Inner-Iter.     Column Row Layer    Maximum-Head-Change  Column Row Layer    Maximum-Flux-Residual          L2-NORM 
          0                 1           7            88   64     1       0.5512320371E+01      92   52    1         0.1944850948E+06      0.1227664268E+07
          0                 2           5            84   52     1      -0.9037949251E+00      84   52    1        -0.5043390062E+05      0.1383083164E+06
          0                 3           3            66   25     2      -0.7402406018E-01      66   25    2        -0.1725386109E+04      0.3046800347E+04
          0                 4           2            55  100     3       0.3742578479E-01      55  100    3         0.1097891007E+04      0.1224242472E+04
          0                 5           2            55  100     3      -0.2495304792E-01      55  100    3        -0.8023562583E+03      0.8084687040E+03
          0                 6           2            55  100     3       0.1327498131E-01      55  100    3         0.4673486282E+03      0.4676273939E+03
          0                 7           2            55  100     3      -0.5367790424E-02      55  100    3        -0.2066428965E+03      0.2066582790E+03

    ------------------------------------------------
       NWT REQUIRED            7 OUTER ITERATIONS 
       AND A TOTAL OF         23 INNER ITERATIONS.
    ------------------------------------------------

 NO OUTPUT CONTROL FOR STRESS PERIOD   54   TIME STEP    4
 
 SOLVING FOR HEAD 
                                                   Max.-Head-Change                         Max.-Flux-Residual
  Residual-Control   Outer-Iter.   Inner-Iter.     Column Row Layer    Maximum-Head-Change  Column Row Layer    Maximum-Flux-Residual          L2-NORM 
          0                 1           7            88   64     1       0.5254548497E+01      92   52    1         0.1803778153E+06      0.1133848301E+07
          0                 2           5            73   15     3       0.2660818216E+01      73   15    3         0.2022980913E+05      0.1201243233E+06
          0                 3           3            73   15     3      -0.2071733385E+00      44   30    2         0.3021404746E+04      0.3793989818E+04
          0                 4           2            55  100     3       0.1943356785E-01      55  100    3         0.5700996415E+03      0.6436196367E+03
          0                 5           2            55  100     3      -0.1285574191E-01      55  100    3        -0.4134060835E+03      0.4153537272E+03
          0                 6           2            55  100     3       0.6757163662E-02      55  100    3         0.2378957215E+03      0.2379483005E+03

    ------------------------------------------------
       NWT REQUIRED            6 OUTER ITERATIONS 
       AND A TOTAL OF         21 INNER ITERATIONS.
    ------------------------------------------------

 NO OUTPUT CONTROL FOR STRESS PERIOD   54   TIME STEP    5
 
 SOLVING FOR HEAD 
                                                   Max.-Head-Change                         Max.-Flux-Residual
  Residual-Control   Outer-Iter.   Inner-Iter.     Column Row Layer    Maximum-Head-Change  Column Row Layer    Maximum-Flux-Residual          L2-NORM 
          0                 1           7            88   64     1       0.5007121300E+01      88   65    1         0.1689838506E+06      0.1062617276E+07
          0                 2           5            80   45     2       0.2321827737E+01      44   30    2         0.2219935494E+05      0.1134421536E+06
          0                 3           3            80   45     2      -0.2110745509E+00      26   20    2         0.3184870053E+04      0.4254449147E+04
          0                 4           2            55  100     3       0.1499514620E-01      55  100    3         0.4398194369E+03      0.5291540417E+03
          0                 5           2            55  100     3      -0.9880152480E-02      55  100    3        -0.3176999498E+03      0.3192168392E+03

    ------------------------------------------------
       NWT REQUIRED            5 OUTER ITERATIONS 
       AND A TOTAL OF         19 INNER ITERATIONS.
    ------------------------------------------------

 NO OUTPUT CONTROL FOR STRESS PERIOD   54   TIME STEP    6
 
 SOLVING FOR HEAD 
                                                   Max.-Head-Change                         Max.-Flux-Residual
  Residual-Control   Outer-Iter.   Inner-Iter.     Column Row Layer    Maximum-Head-Change  Column Row Layer    Maximum-Flux-Residual          L2-NORM 
          0                 1           7            91   67     2       0.1250679033E+02      88   65    1         0.1615359952E+06      0.1008116886E+07
          0                 2           5            91   67     2      -0.1147866931E+01      35   29    1        -0.1777237362E+05      0.1039800355E+06
          0                 3           2            35   29     2       0.3051477557E-01      35   29    2         0.1915098397E+04      0.2187280110E+04
          0                 4           2            55  100     3       0.5888148987E-02      55  100    3         0.1726883981E+03      0.2459430987E+03

    ------------------------------------------------
       NWT REQUIRED            4 OUTER ITERATIONS 
       AND A TOTAL OF         16 INNER ITERATIONS.
    ------------------------------------------------

 NO OUTPUT CONTROL FOR STRESS PERIOD   54   TIME STEP    7
 
 SOLVING FOR HEAD 
                                                   Max.-Head-Change                         Max.-Flux-Residual
  Residual-Control   Outer-Iter.   Inner-Iter.     Column Row Layer    Maximum-Head-Change  Column Row Layer    Maximum-Flux-Residual          L2-NORM 
          0                 1           7            91   67     1       0.4624159784E+01      91   67    1         0.1702115713E+06      0.9699315516E+06
          0                 2           5            70   19     2       0.2613985961E+01      70   19    2         0.2976118834E+05      0.1155673039E+06
          0                 3           3            70   19     2      -0.2376532127E+00      70   19    2        -0.2969671703E+04      0.4046157102E+04
          0                 4           2            55  100     3       0.8248413611E-02      55  100    3         0.2418883878E+03      0.2423339121E+03

    ------------------------------------------------
       NWT REQUIRED            4 OUTER ITERATIONS 
       AND A TOTAL OF         17 INNER ITERATIONS.
    ------------------------------------------------

 NO OUTPUT CONTROL FOR STRESS PERIOD   54   TIME STEP    8
 
 SOLVING FOR HEAD 
                                                   Max.-Head-Change                         Max.-Flux-Residual
  Residual-Control   Outer-Iter.   Inner-Iter.     Column Row Layer    Maximum-Head-Change  Column Row Layer    Maximum-Flux-Residual          L2-NORM 
          0                 1           7            72   15     2       0.5092991135E+01      91   67    1         0.1638333728E+06      0.9331528532E+06
          0                 2           5            73   14     1      -0.9799285367E+00      73   14    1        -0.3300639081E+05      0.1020898538E+06
          0                 3           2            64   27     1      -0.1290195874E-01      30   80    3        -0.9148375449E+03      0.1436527233E+04
          0                 4           2            55  100     3       0.9902869830E-02      30   80    3        -0.9142909399E+03      0.9593527917E+03
          0                 5           2            55  100     3      -0.6473841648E-02      30   80    3        -0.9137773266E+03      0.9371872774E+03
          0                 6           2            55  100     3       0.3351079041E-02      30   80    3        -0.9132441916E+03      0.9208350263E+03
          0                 7           2            55  100     3      -0.1317772684E-02      30   80    3        -0.9127045848E+03      0.9141151037E+03
          0                 8           1            55  100     3       0.3718164512E-03      30   80    3        -0.9121535224E+03      0.9122891455E+03
          0                 9           1            55  100     3      -0.6732083241E-04      30   80    3        -0.9115705994E+03      0.9115774096E+03
          0                10           1            30   80     3      -0.3324304512E-04      30   80    3        -0.9109914493E+03      0.9109930809E+03
                                                   Max.-Head-Change                         Max.-Flux-Residual
  Residual-Control   Outer-Iter.   Inner-Iter.     Column Row Layer    Maximum-Head-Change  Column Row Layer    Maximum-Flux-Residual          L2-NORM 
          0                11           1            30   80     3      -0.3322118991E-04      30   80    3        -0.9104032228E+03      0.9104048024E+03
          0                12           1            30   80     3      -0.3319890352E-04      30   80    3        -0.9098035852E+03      0.9098051636E+03
          0                13           1            30   80     3      -0.3317618243E-04      30   80    3        -0.9091921296E+03      0.9091937070E+03
          0                14           1            30   80     3      -0.3315302765E-04      30   80    3        -0.9085687891E+03      0.9085703655E+03
          0                15           1            30   80     3      -0.3312944018E-04      30   80    3        -0.9079335687E+03      0.9079351440E+03
          0                16           1            30   80     3      -0.3310542102E-04      30   80    3        -0.9072864934E+03      0.9072880675E+03
          0                17           1            30   80     3      -0.3308097116E-04      30   80    3        -0.9066275946E+03      0.9066291676E+03
          0                18           1            30   80     3      -0.3305609211E-04      30   80    3        -0.9059569066E+03      0.9059584786E+03
          0                19           1            30   80     3      -0.3303078488E-04      30   80    3        -0.9052744652E+03      0.9052760360E+03
          0                20           1            30   80     3      -0.3300505095E-04      30   80    3        -0.9045803068E+03      0.9045818764E+03
                                                   Max.-Head-Change                         Max.-Flux-Residual
  Residual-Control   Outer-Iter.   Inner-Iter.     Column Row Layer    Maximum-Head-Change  Column Row Layer    Maximum-Flux-Residual          L2-NORM 
          0                21           1            30   80     3      -0.3297889184E-04      30   80    3        -0.9038744687E+03      0.9038760372E+03
          0                22           1            30   80     3      -0.3295230954E-04      30   80    3        -0.9031569888E+03      0.9031585560E+03
          0                23           1            30   80     3      -0.3292530405E-04      30   80    3        -0.9024279056E+03      0.9024294715E+03
          0                24           1            30   80     3      -0.3289787787E-04      30   80    3        -0.9016872579E+03      0.9016888227E+03
          0                25           1            30   80     3      -0.3287003301E-04      30   80    3        -0.9009350856E+03      0.9009366491E+03
          0                26           1            30   80     3      -0.3284176946E-04      30   80    3        -0.9001714287E+03      0.9001729909E+03
          0                27           1            30   80     3      -0.3281308923E-04      30   80    3        -0.8993963280E+03      0.8993978889E+03
          0                28           1            30   80     3      -0.3278399431E-04      30   80    3        -0.8986098248E+03      0.8986113843E+03
          0                29           1            30   80     3      -0.3275448621E-04      30   80    3        -0.8978119609E+03      0.8978135191E+03
          0                30           1            30   80     3      -0.3272456593E-04      30   80    3        -0.8970027787E+03      0.8970043355E+03
                                                   Max.-Head-Change                         Max.-Flux-Residual
  Residual-Control   Outer-Iter.   Inner-Iter.     Column Row Layer    Maximum-Head-Change  Column Row Layer    Maximum-Flux-Residual          L2-NORM 
          0                31           1            30   80     3      -0.3269423546E-04      30   80    3        -0.8961823210E+03      0.8961838765E+03
          0                32           1            30   80     3      -0.3266349681E-04      30   80    3        -0.8953506315E+03      0.8953521855E+03
          0                33           1            30   80     3      -0.3263235048E-04      30   80    3        -0.8945077540E+03      0.8945093065E+03
          0                34           1            30   80     3      -0.3260079898E-04      30   80    3        -0.8936537330E+03      0.8936552841E+03
          0                35           1            30   80     3      -0.3256884379E-04      30   80    3        -0.8927886136E+03      0.8927901632E+03
          0                36           1            30   80     3      -0.3253648642E-04      30   80    3        -0.8919124412E+03      0.8919139894E+03
          0                37           1            30   80     3      -0.3250372938E-04      30   80    3        -0.8910252621E+03      0.8910268087E+03
          0                38           1            30   80     3      -0.3247057316E-04      30   80    3        -0.8901271226E+03      0.8901286677E+03
          0                39           1            30   80     3      -0.3243702026E-04      30   80    3        -0.8892180699E+03      0.8892196135E+03
          0                40           1            30   80     3      -0.3240307169E-04      30   80    3        -0.8882981515E+03      0.8882996935E+03
                                                   Max.-Head-Change                         Max.-Flux-Residual
  Residual-Control   Outer-Iter.   Inner-Iter.     Column Row Layer    Maximum-Head-Change  Column Row Layer    Maximum-Flux-Residual          L2-NORM 
          0                41           1            30   80     3      -0.3236873044E-04      30   80    3        -0.8873674154E+03      0.8873689559E+03
          0                42           1            30   80     3      -0.3233399702E-04      30   80    3        -0.8864259102E+03      0.8864274490E+03
          0                43           1            30   80     3      -0.3229887443E-04      30   80    3        -0.8854736849E+03      0.8854752221E+03
          0                44           1            30   80     3      -0.3226336316E-04      30   80    3        -0.8845107888E+03      0.8845123244E+03
          0                45           1            30   80     3      -0.3222746622E-04      30   80    3        -0.8835372721E+03      0.8835388060E+03
          0                46           1            30   80     3      -0.3219118512E-04      30   80    3        -0.8825531850E+03      0.8825547173E+03
          0                47           1            30   80     3      -0.3215452134E-04      30   80    3        -0.8815585785E+03      0.8815601090E+03
          0                48           1            30   80     3      -0.3211747739E-04      30   80    3        -0.8805535038E+03      0.8805550326E+03
          0                49           2            30   80     3      -0.3054770052E-01      30   80    3        -0.8795388950E+03      0.8795404221E+03
          0                50           2            30   80     3       0.2765001422E-02      30   80    3         0.1111578951E+03      0.1195846670E+03

    ------------------------------------------------
       NWT REQUIRED           50 OUTER ITERATIONS 
       AND A TOTAL OF         67 INNER ITERATIONS.
    ------------------------------------------------

 NO OUTPUT CONTROL FOR STRESS PERIOD   54   TIME STEP    9
 
 SOLVING FOR HEAD 
                                                   Max.-Head-Change                         Max.-Flux-Residual
  Residual-Control   Outer-Iter.   Inner-Iter.     Column Row Layer    Maximum-Head-Change  Column Row Layer    Maximum-Flux-Residual          L2-NORM 
          0                 1           7            91   67     1       0.4265465645E+01      91   67    1         0.1573668475E+06      0.9049885628E+06
          0                 2           5            84   58     2      -0.2285609928E+01      89   67    1        -0.3608943987E+05      0.1005943951E+06
          0                 3           2            78   52     2      -0.1034302959E+00      78   52    2        -0.7355893228E+03      0.8317138709E+03
          0                 4           2            55  100     3       0.6225513758E-02      55  100    3         0.1825116962E+03      0.1835291693E+03

    ------------------------------------------------
       NWT REQUIRED            4 OUTER ITERATIONS 
       AND A TOTAL OF         16 INNER ITERATIONS.
    ------------------------------------------------

 NO OUTPUT CONTROL FOR STRESS PERIOD   54   TIME STEP   10
 
 SOLVING FOR HEAD 
                                                   Max.-Head-Change                         Max.-Flux-Residual
  Residual-Control   Outer-Iter.   Inner-Iter.     Column Row Layer    Maximum-Head-Change  Column Row Layer    Maximum-Flux-Residual          L2-NORM 
          0                 1           7            78   52     2       0.4186273857E+01      91   67    1         0.1510023892E+06      0.8783073237E+06
          0                 2           5            79   85     1      -0.6799093894E+00      91   67    1        -0.1519030291E+05      0.9209019356E+05
          0                 3           2            79   85     1       0.5517292912E-01      28   24    2        -0.8563348241E+03      0.1489514084E+04
          0                 4           2            55  100     3       0.7005596835E-02      55  100    3         0.2053778278E+03      0.2068932655E+03

    ------------------------------------------------
       NWT REQUIRED            4 OUTER ITERATIONS 
       AND A TOTAL OF         16 INNER ITERATIONS.
    ------------------------------------------------

 NO OUTPUT CONTROL FOR STRESS PERIOD   54   TIME STEP   11
 
 SOLVING FOR HEAD 
                                                   Max.-Head-Change                         Max.-Flux-Residual
  Residual-Control   Outer-Iter.   Inner-Iter.     Column Row Layer    Maximum-Head-Change  Column Row Layer    Maximum-Flux-Residual          L2-NORM 
          0                 1           7            91   67     1       0.3928235751E+01      91   67    1         0.1449030467E+06      0.8554431924E+06
          0                 2           5            92   67     2       0.8983466342E+01      92   67    2         0.6081976182E+05      0.1060656504E+06
          0                 3           3            92   67     2      -0.8166882744E+00      92   67    2        -0.6081988157E+04      0.6275689633E+04
          0                 4           2            55  100     3       0.7248691112E-02      55  100    3         0.2124919777E+03      0.2143556522E+03

    ------------------------------------------------
       NWT REQUIRED            4 OUTER ITERATIONS 
       AND A TOTAL OF         17 INNER ITERATIONS.
    ------------------------------------------------

 OUTPUT CONTROL FOR STRESS PERIOD   54   TIME STEP   12
    SAVE BUDGET
 UBDSV1 SAVING "         STORAGE" ON UNIT  39 AT TIME STEP 12, STRESS PERIOD  54
 UBDSV2 SAVING "   CONSTANT HEAD" ON UNIT  39 AT TIME STEP 12, STRESS PERIOD  54
 UBDSV1 SAVING "FLOW RIGHT FACE " ON UNIT  39 AT TIME STEP 12, STRESS PERIOD  54
 UBDSV1 SAVING "FLOW FRONT FACE " ON UNIT  39 AT TIME STEP 12, STRESS PERIOD  54
 UBDSV1 SAVING "FLOW LOWER FACE " ON UNIT  39 AT TIME STEP 12, STRESS PERIOD  54
 UBDSV4 SAVING "           WELLS" ON UNIT  39 AT TIME STEP 12, STRESS PERIOD  54
 UBDSV3 SAVING "              ET" ON UNIT  39 AT TIME STEP 12, STRESS PERIOD  54
 UBDSV3 SAVING "        RECHARGE" ON UNIT  39 AT TIME STEP 12, STRESS PERIOD  54
1
  VOLUMETRIC BUDGET FOR ENTIRE MODEL AT END OF TIME STEP   12, STRESS PERIOD  54
  ------------------------------------------------------------------------------

     CUMULATIVE VOLUMES      L**3       RATES FOR THIS TIME STEP      L**3/T
     ------------------                 ------------------------

           IN:                                      IN:
           ---                                      ---
             STORAGE =342863314944.0000               STORAGE =     5043096.5000
       CONSTANT HEAD = 34179829760.0000         CONSTANT HEAD =     2295718.5000
               WELLS = 24174069760.0000                 WELLS =     1225642.0000
                  ET =           0.0000                    ET =           0.0000
            RECHARGE =407861952512.0000              RECHARGE =    51529660.0000

            TOTAL IN =809079144448.0000              TOTAL IN =    60094120.0000

          OUT:                                     OUT:
          ----                                     ----
             STORAGE = 78893006848.0000               STORAGE =    26056606.0000
       CONSTANT HEAD = 63384821760.0000         CONSTANT HEAD =     2581027.0000
               WELLS =646533021696.0000                 WELLS =    28406986.0000
                  ET = 20267972608.0000                    ET =     3049660.0000
            RECHARGE =           0.0000              RECHARGE =           0.0000

           TOTAL OUT =809078882304.0000             TOTAL OUT =    60094280.0000

            IN - OUT =      262144.0000              IN - OUT =        -160.0000

 PERCENT DISCREPANCY =           0.00     PERCENT DISCREPANCY =          -0.00






         TIME SUMMARY AT END OF TIME STEP   12 IN STRESS PERIOD   54
                    SECONDS     MINUTES      HOURS       DAYS        YEARS
                    -----------------------------------------------------------
   TIME STEP LENGTH 2.62800E+06  43800.      730.00      30.417     8.32763E-02
 STRESS PERIOD TIME 3.15360E+07 5.25600E+05  8760.0      365.00     0.99932    
         TOTAL TIME 1.70415E+09 2.84026E+07 4.73376E+05  19724.      54.001    
1
1
                            STRESS PERIOD NO.   55, LENGTH =   365.0000    
                            -----------------------------------------------

                              NUMBER OF TIME STEPS =    12

                               MULTIPLIER FOR DELT =     1.000

                            INITIAL TIME STEP SIZE =   30.41667    

   1680 WELLS

 REUSING SURF FROM LAST STRESS PERIOD

 REUSING EVTR FROM LAST STRESS PERIOD

 REUSING EXDP FROM LAST STRESS PERIOD



                           RECHARGE
 READING ON UNIT   16 WITH FORMAT: (15F5.0)            


     63 TIME-VARIANT SPECIFIED-HEAD CELLS
 
 SOLVING FOR HEAD 
                                                   Max.-Head-Change                         Max.-Flux-Residual
  Residual-Control   Outer-Iter.   Inner-Iter.     Column Row Layer    Maximum-Head-Change  Column Row Layer    Maximum-Flux-Residual          L2-NORM 
          0                 1           7            65    2     2      -0.9119463439E+02      79   49    1        -0.3315799732E+06      0.2044966017E+07
          0                 2           5            83   52     3       0.4615045895E+01      78   52    2         0.1456955964E+06      0.2555296399E+06
          0                 3           2            65    2     2       0.1822445187E+00      22   20    1         0.3344684152E+04      0.5284745220E+04
          0                 4           2            55  100     3      -0.7425736377E-01      55  100    3        -0.2177359208E+04      0.2181986915E+04
          0                 5           2            55  100     3       0.3668928575E-01      55  100    3         0.1179589804E+04      0.1179773405E+04
          0                 6           2            55  100     3      -0.1333927150E-01      55  100    3        -0.4696617666E+03      0.4696705860E+03
          0                 7           2            55  100     3       0.3432215033E-02      55  100    3         0.1321401153E+03      0.1321421926E+03

    ------------------------------------------------
       NWT REQUIRED            7 OUTER ITERATIONS 
       AND A TOTAL OF         22 INNER ITERATIONS.
    ------------------------------------------------

 NO OUTPUT CONTROL FOR STRESS PERIOD   55   TIME STEP    1
 
 SOLVING FOR HEAD 
                                                   Max.-Head-Change                         Max.-Flux-Residual
  Residual-Control   Outer-Iter.   Inner-Iter.     Column Row Layer    Maximum-Head-Change  Column Row Layer    Maximum-Flux-Residual          L2-NORM 
          0                 1           6            83   52     3      -0.1058691275E+02      85   52    1        -0.2410271427E+06      0.1418890000E+07
          0                 2           5            89   67     2       0.3541350068E+01      89   67    2         0.2568204559E+05      0.1449214970E+06
          0                 3           3            89   67     2      -0.3219735395E+00      89   67    2        -0.2676805158E+04      0.4528129631E+04
          0                 4           2            55  100     3      -0.4144834080E-01      55  100    3        -0.1215219188E+04      0.1219668040E+04
          0                 5           2            55  100     3       0.2111283630E-01      55  100    3         0.6787721549E+03      0.6789513301E+03
          0                 6           2            55  100     3      -0.8042858559E-02      55  100    3        -0.2831675338E+03      0.2831729509E+03

    ------------------------------------------------
       NWT REQUIRED            6 OUTER ITERATIONS 
       AND A TOTAL OF         20 INNER ITERATIONS.
    ------------------------------------------------

 NO OUTPUT CONTROL FOR STRESS PERIOD   55   TIME STEP    2
 
 SOLVING FOR HEAD 
                                                   Max.-Head-Change                         Max.-Flux-Residual
  Residual-Control   Outer-Iter.   Inner-Iter.     Column Row Layer    Maximum-Head-Change  Column Row Layer    Maximum-Flux-Residual          L2-NORM 
          0                 1           6            88   51     1      -0.4173591478E+01      76   48    1        -0.1889327834E+06      0.1127131848E+07
          0                 2           5            88   51     1       0.3699685568E+00      76   48    1         0.1877236191E+05      0.1120537093E+06
          0                 3           3            73   54     1      -0.9109116493E-01      73   54    1        -0.2511537694E+04      0.2739880855E+04
          0                 4           2            55  100     3      -0.2281867625E-01      55  100    3        -0.6689529240E+03      0.7105151575E+03
          0                 5           2            55  100     3       0.1178417320E-01      55  100    3         0.3788395595E+03      0.3795584759E+03
          0                 6           2            55  100     3      -0.4586050763E-02      55  100    3        -0.1614550789E+03      0.1614690960E+03

    ------------------------------------------------
       NWT REQUIRED            6 OUTER ITERATIONS 
       AND A TOTAL OF         20 INNER ITERATIONS.
    ------------------------------------------------

 NO OUTPUT CONTROL FOR STRESS PERIOD   55   TIME STEP    3
 
 SOLVING FOR HEAD 
                                                   Max.-Head-Change                         Max.-Flux-Residual
  Residual-Control   Outer-Iter.   Inner-Iter.     Column Row Layer    Maximum-Head-Change  Column Row Layer    Maximum-Flux-Residual          L2-NORM 
          0                 1           6            88   51     1      -0.3690365364E+01      76   48    1        -0.1505128076E+06      0.9501510590E+06
          0                 2           4            65    6     2      -0.2148703430E+02      76   48    1         0.1497599453E+05      0.9635354837E+05
          0                 3           3            65    6     2       0.1137438102E+01      65    6    3        -0.1179063033E+04      0.1906829066E+04
          0                 4           2            65    6     2       0.4381345004E-01      55  100    3        -0.3599754800E+03      0.3643552862E+03
          0                 5           2            55  100     3       0.6386717664E-02      55  100    3         0.2053089778E+03      0.2054603525E+03

    ------------------------------------------------
       NWT REQUIRED            5 OUTER ITERATIONS 
       AND A TOTAL OF         17 INNER ITERATIONS.
    ------------------------------------------------

 NO OUTPUT CONTROL FOR STRESS PERIOD   55   TIME STEP    4
 
 SOLVING FOR HEAD 
                                                   Max.-Head-Change                         Max.-Flux-Residual
  Residual-Control   Outer-Iter.   Inner-Iter.     Column Row Layer    Maximum-Head-Change  Column Row Layer    Maximum-Flux-Residual          L2-NORM 
          0                 1           6            92   77     2      -0.8447490225E+02      69   47    1        -0.1292714519E+06      0.8313699536E+06
          0                 2           4            92   77     2       0.1352275465E+02      69   47    1         0.1269523461E+05      0.8359763842E+05
          0                 3           2            92   77     2       0.6391542009E+00      58   71    1         0.6436542297E+03      0.1059163102E+04
          0                 4           2            92   77     2       0.2912689226E-01      55  100    3        -0.1497036394E+03      0.1544216113E+03
          0                 5           2            55  100     3       0.2667961053E-02      55  100    3         0.8575670258E+02      0.8589000073E+02

    ------------------------------------------------
       NWT REQUIRED            5 OUTER ITERATIONS 
       AND A TOTAL OF         16 INNER ITERATIONS.
    ------------------------------------------------

 NO OUTPUT CONTROL FOR STRESS PERIOD   55   TIME STEP    5
 
 SOLVING FOR HEAD 
                                                   Max.-Head-Change                         Max.-Flux-Residual
  Residual-Control   Outer-Iter.   Inner-Iter.     Column Row Layer    Maximum-Head-Change  Column Row Layer    Maximum-Flux-Residual          L2-NORM 
          0                 1           6            65    3     2      -0.1598259402E+02      69   47    1        -0.1157896012E+06      0.7479326885E+06
          0                 2           4            69   21     1      -0.4038195520E+01      69   21    1        -0.2017692372E+05      0.7717725083E+05
          0                 3           2            69   21     1       0.3446442125E+00      69   21    1         0.1895706884E+04      0.2174846387E+04
          0                 4           2            65    5     2       0.6942283207E-02      23   21    1        -0.8567696323E+02      0.1057388325E+03

    ------------------------------------------------
       NWT REQUIRED            4 OUTER ITERATIONS 
       AND A TOTAL OF         14 INNER ITERATIONS.
    ------------------------------------------------

 NO OUTPUT CONTROL FOR STRESS PERIOD   55   TIME STEP    6
 
 SOLVING FOR HEAD 
                                                   Max.-Head-Change                         Max.-Flux-Residual
  Residual-Control   Outer-Iter.   Inner-Iter.     Column Row Layer    Maximum-Head-Change  Column Row Layer    Maximum-Flux-Residual          L2-NORM 
          0                 1           6            65    5     2      -0.2934030854E+02      69   47    1        -0.1041777691E+06      0.6864847430E+06
          0                 2           4            65    5     2       0.2047968864E+01      69   47    1         0.1027244484E+05      0.6900705801E+05
          0                 3           2            65    5     2       0.9141691443E-01      23   21    1         0.6010120729E+03      0.9363621800E+03
          0                 4           2            65    5     2       0.4072195018E-02      55  100    3        -0.3528975775E+02      0.4085535798E+02

    ------------------------------------------------
       NWT REQUIRED            4 OUTER ITERATIONS 
       AND A TOTAL OF         14 INNER ITERATIONS.
    ------------------------------------------------

 NO OUTPUT CONTROL FOR STRESS PERIOD   55   TIME STEP    7
 
 SOLVING FOR HEAD 
                                                   Max.-Head-Change                         Max.-Flux-Residual
  Residual-Control   Outer-Iter.   Inner-Iter.     Column Row Layer    Maximum-Head-Change  Column Row Layer    Maximum-Flux-Residual          L2-NORM 
          0                 1           6            81   45     1      -0.2676047983E+01      92   52    1        -0.9482720138E+05      0.6392786700E+06
          0                 2           4            61   82     2       0.2754555108E+00      61   82    2         0.1730493807E+05      0.6675458981E+05
          0                 3           2            25   23     1       0.4743866193E-02      25   23    1         0.2198869821E+03      0.2971414026E+03

    ------------------------------------------------
       NWT REQUIRED            3 OUTER ITERATIONS 
       AND A TOTAL OF         12 INNER ITERATIONS.
    ------------------------------------------------

 NO OUTPUT CONTROL FOR STRESS PERIOD   55   TIME STEP    8
 
 SOLVING FOR HEAD 
                                                   Max.-Head-Change                         Max.-Flux-Residual
  Residual-Control   Outer-Iter.   Inner-Iter.     Column Row Layer    Maximum-Head-Change  Column Row Layer    Maximum-Flux-Residual          L2-NORM 
          0                 1           6            81   45     1      -0.2564688269E+01      92   52    1        -0.8833556607E+05      0.6024079000E+06
          0                 2           4            81   45     1       0.2328352260E+00      44   30    1        -0.9342468608E+04      0.6123453569E+05
          0                 3           2            61   82     1       0.1672954099E-01      44   30    1         0.9181531647E+03      0.1200806065E+04
          0                 4           1            55  100     3       0.3081977483E-03      55  100    3         0.9079835385E+01      0.1127458733E+02

    ------------------------------------------------
       NWT REQUIRED            4 OUTER ITERATIONS 
       AND A TOTAL OF         13 INNER ITERATIONS.
    ------------------------------------------------

 NO OUTPUT CONTROL FOR STRESS PERIOD   55   TIME STEP    9
 
 SOLVING FOR HEAD 
                                                   Max.-Head-Change                         Max.-Flux-Residual
  Residual-Control   Outer-Iter.   Inner-Iter.     Column Row Layer    Maximum-Head-Change  Column Row Layer    Maximum-Flux-Residual          L2-NORM 
          0                 1           6            81   45     1      -0.2459495148E+01      92   52    1        -0.8276335187E+05      0.5739665392E+06
          0                 2           4            83   60     1      -0.1816116013E+01      92   52    1         0.8206427621E+04      0.5767543696E+05
          0                 3           3            83   60     1       0.1192121399E+00      42   31    1        -0.3383800590E+04      0.3390411339E+04
          0                 4           2            83   60     1       0.3007454317E-02      42   31    1        -0.3050309023E+03      0.3058982876E+03

    ------------------------------------------------
       NWT REQUIRED            4 OUTER ITERATIONS 
       AND A TOTAL OF         15 INNER ITERATIONS.
    ------------------------------------------------

 NO OUTPUT CONTROL FOR STRESS PERIOD   55   TIME STEP   10
 
 SOLVING FOR HEAD 
                                                   Max.-Head-Change                         Max.-Flux-Residual
  Residual-Control   Outer-Iter.   Inner-Iter.     Column Row Layer    Maximum-Head-Change  Column Row Layer    Maximum-Flux-Residual          L2-NORM 
          0                 1           6            83   60     1      -0.3385192589E+01      92   52    1        -0.7794135725E+05      0.5507040238E+06
          0                 2           4            56   80     2      -0.1792325529E+01      42   31    1        -0.1447652318E+05      0.5743631169E+05
          0                 3           3            56   80     2       0.1326549437E+00      42   31    1         0.1436531852E+04      0.1683523239E+04
          0                 4           2            56   80     1       0.2446623017E-02      18   14    1        -0.5139953324E+02      0.6127872750E+02

    ------------------------------------------------
       NWT REQUIRED            4 OUTER ITERATIONS 
       AND A TOTAL OF         15 INNER ITERATIONS.
    ------------------------------------------------

 NO OUTPUT CONTROL FOR STRESS PERIOD   55   TIME STEP   11

 INTERPOLATION FOR HEAD OBS# 1657, ID 2303-55-355  CHANGED BECAUSE AT LEAST ONE
 NEIGHBORING CELL REQUIRED FOR INTERPOLATION IS DRY OR INACTIVE (OBS2BAS7SE)

 INTERPOLATION FOR HEAD OBS# 2183, ID 2355-55-343  CHANGED BECAUSE AT LEAST ONE
 NEIGHBORING CELL REQUIRED FOR INTERPOLATION IS DRY OR INACTIVE (OBS2BAS7SE)
 
 SOLVING FOR HEAD 
                                                   Max.-Head-Change                         Max.-Flux-Residual
  Residual-Control   Outer-Iter.   Inner-Iter.     Column Row Layer    Maximum-Head-Change  Column Row Layer    Maximum-Flux-Residual          L2-NORM 
          0                 1           6            81   45     1      -0.2266000593E+01      92   52    1        -0.7373561833E+05      0.5314702097E+06
          0                 2           4            72   15     2       0.4330963038E+00      58   61    2         0.1745478078E+05      0.6045105601E+05
          0                 3           2            71   56     1      -0.5080519212E-01      71   56    1        -0.1382996626E+04      0.1394597900E+04
          0                 4           2            71   56     1      -0.4584071063E-02      71   56    1        -0.1248124389E+03      0.1324237059E+03

    ------------------------------------------------
       NWT REQUIRED            4 OUTER ITERATIONS 
       AND A TOTAL OF         14 INNER ITERATIONS.
    ------------------------------------------------

 OUTPUT CONTROL FOR STRESS PERIOD   55   TIME STEP   12
    SAVE BUDGET
 UBDSV1 SAVING "         STORAGE" ON UNIT  39 AT TIME STEP 12, STRESS PERIOD  55
 UBDSV2 SAVING "   CONSTANT HEAD" ON UNIT  39 AT TIME STEP 12, STRESS PERIOD  55
 UBDSV1 SAVING "FLOW RIGHT FACE " ON UNIT  39 AT TIME STEP 12, STRESS PERIOD  55
 UBDSV1 SAVING "FLOW FRONT FACE " ON UNIT  39 AT TIME STEP 12, STRESS PERIOD  55
 UBDSV1 SAVING "FLOW LOWER FACE " ON UNIT  39 AT TIME STEP 12, STRESS PERIOD  55
 UBDSV4 SAVING "           WELLS" ON UNIT  39 AT TIME STEP 12, STRESS PERIOD  55
 UBDSV3 SAVING "              ET" ON UNIT  39 AT TIME STEP 12, STRESS PERIOD  55
 UBDSV3 SAVING "        RECHARGE" ON UNIT  39 AT TIME STEP 12, STRESS PERIOD  55

 INTERPOLATION FOR HEAD OBS#  170, ID 3368-56-25   CHANGED BECAUSE AT LEAST ONE
 NEIGHBORING CELL REQUIRED FOR INTERPOLATION IS DRY OR INACTIVE (OBS2BAS7SE)

 INTERPOLATION FOR HEAD OBS#  197, ID 3228-56-20   CHANGED BECAUSE AT LEAST ONE
 NEIGHBORING CELL REQUIRED FOR INTERPOLATION IS DRY OR INACTIVE (OBS2BAS7SE)

 INTERPOLATION FOR HEAD OBS#  254, ID 3260-56-26   CHANGED BECAUSE AT LEAST ONE
 NEIGHBORING CELL REQUIRED FOR INTERPOLATION IS DRY OR INACTIVE (OBS2BAS7SE)

 INTERPOLATION FOR HEAD OBS#  638, ID 3014-56-24   CHANGED BECAUSE AT LEAST ONE
 NEIGHBORING CELL REQUIRED FOR INTERPOLATION IS DRY OR INACTIVE (OBS2BAS7SE)

 INTERPOLATION FOR HEAD OBS#  651, ID 3055-56-19   CHANGED BECAUSE AT LEAST ONE
 NEIGHBORING CELL REQUIRED FOR INTERPOLATION IS DRY OR INACTIVE (OBS2BAS7SE)

 INTERPOLATION FOR HEAD OBS#  775, ID 3008-56-26   CHANGED BECAUSE AT LEAST ONE
 NEIGHBORING CELL REQUIRED FOR INTERPOLATION IS DRY OR INACTIVE (OBS2BAS7SE)

 INTERPOLATION FOR HEAD OBS# 1335, ID 2852-56-19   CHANGED BECAUSE AT LEAST ONE
 NEIGHBORING CELL REQUIRED FOR INTERPOLATION IS DRY OR INACTIVE (OBS2BAS7SE)

 INTERPOLATION FOR HEAD OBS# 1340, ID 2869-56-24   CHANGED BECAUSE AT LEAST ONE
 NEIGHBORING CELL REQUIRED FOR INTERPOLATION IS DRY OR INACTIVE (OBS2BAS7SE)

 INTERPOLATION FOR HEAD OBS# 1403, ID 2840-56-19   CHANGED BECAUSE AT LEAST ONE
 NEIGHBORING CELL REQUIRED FOR INTERPOLATION IS DRY OR INACTIVE (OBS2BAS7SE)

 INTERPOLATION FOR HEAD OBS# 1742, ID 2618-56-23   CHANGED BECAUSE AT LEAST ONE
 NEIGHBORING CELL REQUIRED FOR INTERPOLATION IS DRY OR INACTIVE (OBS2BAS7SE)

 INTERPOLATION FOR HEAD OBS# 1834, ID 1908-56-18   CHANGED BECAUSE AT LEAST ONE
 NEIGHBORING CELL REQUIRED FOR INTERPOLATION IS DRY OR INACTIVE (OBS2BAS7SE)

 INTERPOLATION FOR HEAD OBS# 1868, ID 2606-56-26   CHANGED BECAUSE AT LEAST ONE
 NEIGHBORING CELL REQUIRED FOR INTERPOLATION IS DRY OR INACTIVE (OBS2BAS7SE)

 INTERPOLATION FOR HEAD OBS# 2526, ID 2243-56-25   CHANGED BECAUSE AT LEAST ONE
 NEIGHBORING CELL REQUIRED FOR INTERPOLATION IS DRY OR INACTIVE (OBS2BAS7SE)

 INTERPOLATION FOR HEAD OBS# 3200, ID 2443-56-20   CHANGED BECAUSE AT LEAST ONE
 NEIGHBORING CELL REQUIRED FOR INTERPOLATION IS DRY OR INACTIVE (OBS2BAS7SE)

 INTERPOLATION FOR HEAD OBS# 5404, ID 1705-56-16   CHANGED BECAUSE AT LEAST ONE
 NEIGHBORING CELL REQUIRED FOR INTERPOLATION IS DRY OR INACTIVE (OBS2BAS7SE)

 INTERPOLATION FOR HEAD OBS# 5408, ID 1530-56-16   CHANGED BECAUSE AT LEAST ONE
 NEIGHBORING CELL REQUIRED FOR INTERPOLATION IS DRY OR INACTIVE (OBS2BAS7SE)

 INTERPOLATION FOR HEAD OBS# 6247, ID 1164-56-17   CHANGED BECAUSE AT LEAST ONE
 NEIGHBORING CELL REQUIRED FOR INTERPOLATION IS DRY OR INACTIVE (OBS2BAS7SE)

 INTERPOLATION FOR HEAD OBS# 7381, ID 451-56-17    CHANGED BECAUSE AT LEAST ONE
 NEIGHBORING CELL REQUIRED FOR INTERPOLATION IS DRY OR INACTIVE (OBS2BAS7SE)

 INTERPOLATION FOR HEAD OBS# 7534, ID 269-56-10    CHANGED BECAUSE AT LEAST ONE
 NEIGHBORING CELL REQUIRED FOR INTERPOLATION IS DRY OR INACTIVE (OBS2BAS7SE)

 INTERPOLATION FOR HEAD OBS# 7564, ID 230-56-10    CHANGED BECAUSE AT LEAST ONE
 NEIGHBORING CELL REQUIRED FOR INTERPOLATION IS DRY OR INACTIVE (OBS2BAS7SE)

 INTERPOLATION FOR HEAD OBS# 7783, ID 178-56-11    CHANGED BECAUSE AT LEAST ONE
 NEIGHBORING CELL REQUIRED FOR INTERPOLATION IS DRY OR INACTIVE (OBS2BAS7SE)
1
  VOLUMETRIC BUDGET FOR ENTIRE MODEL AT END OF TIME STEP   12, STRESS PERIOD  55
  ------------------------------------------------------------------------------

     CUMULATIVE VOLUMES      L**3       RATES FOR THIS TIME STEP      L**3/T
     ------------------                 ------------------------

           IN:                                      IN:
           ---                                      ---
             STORAGE =350771478528.0000               STORAGE =    19000126.0000
       CONSTANT HEAD = 35104206848.0000         CONSTANT HEAD =     2616269.7500
               WELLS = 24621426688.0000                 WELLS =     1225642.0000
                  ET =           0.0000                    ET =           0.0000
            RECHARGE =414391304192.0000              RECHARGE =    17889016.0000

            TOTAL IN =824888393728.0000              TOTAL IN =    40731056.0000

          OUT:                                     OUT:
          ----                                     ----
             STORAGE = 80422739968.0000               STORAGE =     2132424.5000
       CONSTANT HEAD = 64242057216.0000         CONSTANT HEAD =     2269811.5000
               WELLS =659346227200.0000                 WELLS =    35104984.0000
                  ET = 20877080576.0000                    ET =     1223877.7500
            RECHARGE =           0.0000              RECHARGE =           0.0000

           TOTAL OUT =824888131584.0000             TOTAL OUT =    40731096.0000

            IN - OUT =      262144.0000              IN - OUT =         -40.0000

 PERCENT DISCREPANCY =           0.00     PERCENT DISCREPANCY =          -0.00






         TIME SUMMARY AT END OF TIME STEP   12 IN STRESS PERIOD   55
                    SECONDS     MINUTES      HOURS       DAYS        YEARS
                    -----------------------------------------------------------
   TIME STEP LENGTH 2.62800E+06  43800.      730.00      30.417     8.32763E-02
 STRESS PERIOD TIME 3.15360E+07 5.25600E+05  8760.0      365.00     0.99932    
         TOTAL TIME 1.73569E+09 2.89281E+07 4.82136E+05  20089.      55.001    
1
1
                            STRESS PERIOD NO.   56, LENGTH =   365.0000    
                            -----------------------------------------------

                              NUMBER OF TIME STEPS =    12

                               MULTIPLIER FOR DELT =     1.000

                            INITIAL TIME STEP SIZE =   30.41667    

   1714 WELLS

 REUSING SURF FROM LAST STRESS PERIOD

 REUSING EVTR FROM LAST STRESS PERIOD

 REUSING EXDP FROM LAST STRESS PERIOD



                           RECHARGE
 READING ON UNIT   16 WITH FORMAT: (15F5.0)            


     63 TIME-VARIANT SPECIFIED-HEAD CELLS
 
 SOLVING FOR HEAD 
                                                   Max.-Head-Change                         Max.-Flux-Residual
  Residual-Control   Outer-Iter.   Inner-Iter.     Column Row Layer    Maximum-Head-Change  Column Row Layer    Maximum-Flux-Residual          L2-NORM 
          0                 1           7            84   50     3       0.8718713490E+02      54   47    2        -0.4112082236E+06      0.1072858786E+07
          0                 2           5            84   56     3       0.8264524335E+01      61   62    2         0.1682876730E+06      0.2149198190E+06
          0                 3           3            55   99     3      -0.1253423740E+01      55   99    3        -0.3247077013E+05      0.3274001632E+05
          0                 4           2            55   99     3       0.1030544969E+01      55   99    3         0.2928552855E+05      0.2928701747E+05
          0                 5           2            55   99     3      -0.6427218662E+00      55   99    3        -0.2003809870E+05      0.2003834582E+05
          0                 6           2            55   99     3       0.3688155294E+00      55   99    3         0.1258452110E+05      0.1258486733E+05
          0                 7           2            55   99     3      -0.1468382800E+00      55   99    3        -0.5481053658E+04      0.5481381340E+04
          0                 8           2            55   99     3       0.4763871711E-01      55   99    3         0.1940909920E+04      0.1941095645E+04
          0                 9           2            55   99     3      -0.9792822117E-02      55   99    3        -0.4351857362E+03      0.4352575796E+03

    ------------------------------------------------
       NWT REQUIRED            9 OUTER ITERATIONS 
       AND A TOTAL OF         27 INNER ITERATIONS.
    ------------------------------------------------

 NO OUTPUT CONTROL FOR STRESS PERIOD   56   TIME STEP    1

 INTERPOLATION FOR HEAD OBS# 3613, ID 1370-56-31   CHANGED BECAUSE AT LEAST ONE
 NEIGHBORING CELL REQUIRED FOR INTERPOLATION IS DRY OR INACTIVE (OBS2BAS7SE)

 INTERPOLATION FOR HEAD OBS# 3702, ID 1479-56-34   CHANGED BECAUSE AT LEAST ONE
 NEIGHBORING CELL REQUIRED FOR INTERPOLATION IS DRY OR INACTIVE (OBS2BAS7SE)

 INTERPOLATION FOR HEAD OBS# 3759, ID 1427-56-33   CHANGED BECAUSE AT LEAST ONE
 NEIGHBORING CELL REQUIRED FOR INTERPOLATION IS DRY OR INACTIVE (OBS2BAS7SE)

 INTERPOLATION FOR HEAD OBS# 3776, ID 1405-56-33   CHANGED BECAUSE AT LEAST ONE
 NEIGHBORING CELL REQUIRED FOR INTERPOLATION IS DRY OR INACTIVE (OBS2BAS7SE)
 
 SOLVING FOR HEAD 
                                                   Max.-Head-Change                         Max.-Flux-Residual
  Residual-Control   Outer-Iter.   Inner-Iter.     Column Row Layer    Maximum-Head-Change  Column Row Layer    Maximum-Flux-Residual          L2-NORM 
          0                 1           6            84   56     3      -0.1674012558E+02      60   62    2        -0.2306780867E+06      0.7069487031E+06
          0                 2           4            84   56     3       0.1521087683E+01      60   62    2         0.2251732232E+05      0.7391644109E+05
          0                 3           2            55   99     3      -0.4616291702E+00      55   99    3        -0.1194942501E+05      0.1205982574E+05
          0                 4           2            55   99     3       0.3451603677E+00      55   99    3         0.9804882307E+04      0.9804952684E+04
          0                 5           2            55   99     3      -0.1978213422E+00      55   99    3        -0.6162750847E+04      0.6162892298E+04
          0                 6           2            55   99     3       0.9432554220E-01      55   99    3         0.3217088566E+04      0.3217274001E+04
          0                 7           2            55   99     3      -0.3168514574E-01      55   99    3        -0.1181926809E+04      0.1182094857E+04
          0                 8           2            55   99     3       0.7639785244E-02      55   99    3         0.3111035393E+03      0.3112019223E+03

    ------------------------------------------------
       NWT REQUIRED            8 OUTER ITERATIONS 
       AND A TOTAL OF         22 INNER ITERATIONS.
    ------------------------------------------------

 NO OUTPUT CONTROL FOR STRESS PERIOD   56   TIME STEP    2
 
 SOLVING FOR HEAD 
                                                   Max.-Head-Change                         Max.-Flux-Residual
  Residual-Control   Outer-Iter.   Inner-Iter.     Column Row Layer    Maximum-Head-Change  Column Row Layer    Maximum-Flux-Residual          L2-NORM 
          0                 1           6            81   55     3      -0.5220727057E+01      60   62    2        -0.1638223765E+06      0.6227761466E+06
          0                 2           4            81   52     1      -0.1603125414E+01      54   47    2         0.2514334907E+05      0.6802932174E+05
          0                 3           2            55   99     3      -0.1963333375E+00      55   99    3        -0.5079245001E+04      0.5116675398E+04
          0                 4           2            55   99     3       0.1355126696E+00      55   99    3         0.3847849351E+04      0.3847922824E+04
          0                 5           2            55   99     3      -0.7220744780E-01      55   99    3        -0.2248241119E+04      0.2248320249E+04
          0                 6           2            55   99     3       0.3042502478E-01      55   99    3         0.1037222472E+04      0.1037285130E+04
          0                 7           2            55   99     3      -0.9036929698E-02      55   99    3        -0.3369192580E+03      0.3369543726E+03

    ------------------------------------------------
       NWT REQUIRED            7 OUTER ITERATIONS 
       AND A TOTAL OF         20 INNER ITERATIONS.
    ------------------------------------------------

 NO OUTPUT CONTROL FOR STRESS PERIOD   56   TIME STEP    3
 
 SOLVING FOR HEAD 
                                                   Max.-Head-Change                         Max.-Flux-Residual
  Residual-Control   Outer-Iter.   Inner-Iter.     Column Row Layer    Maximum-Head-Change  Column Row Layer    Maximum-Flux-Residual          L2-NORM 
          0                 1           6            56   99     3       0.3785039921E+01      60   62    2        -0.1246478442E+06      0.5727192637E+06
          0                 2           4            70   19     1      -0.4982331278E+00      60   62    2         0.1228206252E+05      0.5976350539E+05
          0                 3           2            55   99     3      -0.9114594549E-01      55   99    3        -0.2356880935E+04      0.2394538297E+04
          0                 4           2            55   99     3       0.5973506262E-01      55   99    3         0.1695471956E+04      0.1695539164E+04
          0                 5           2            55   99     3      -0.3036198298E-01      55   99    3        -0.9449092110E+03      0.9449738211E+03
          0                 6           2            55   99     3       0.1187190250E-01      55   99    3         0.4045578217E+03      0.4046039494E+03
          0                 7           2            55   99     3      -0.3254493878E-02      55   99    3        -0.1212800284E+03      0.1213037171E+03

    ------------------------------------------------
       NWT REQUIRED            7 OUTER ITERATIONS 
       AND A TOTAL OF         20 INNER ITERATIONS.
    ------------------------------------------------

 NO OUTPUT CONTROL FOR STRESS PERIOD   56   TIME STEP    4
 
 SOLVING FOR HEAD 
                                                   Max.-Head-Change                         Max.-Flux-Residual
  Residual-Control   Outer-Iter.   Inner-Iter.     Column Row Layer    Maximum-Head-Change  Column Row Layer    Maximum-Flux-Residual          L2-NORM 
          0                 1           6            56   99     3       0.3340268028E+01      60   62    2        -0.1007081468E+06      0.5415467933E+06
          0                 2           4            66   43     2      -0.1979094138E+01      61   63    2         0.1529973486E+05      0.5720072350E+05
          0                 3           2            71   55     1      -0.9942930594E-01      71   55    1        -0.2680830503E+04      0.3149404091E+04
          0                 4           2            55   99     3       0.2936942533E-01      55   99    3         0.8332746848E+03      0.8677053824E+03
          0                 5           2            55   99     3      -0.1452291432E-01      55   99    3        -0.4517903132E+03      0.4523444322E+03
          0                 6           2            55   99     3       0.5445049326E-02      55   99    3         0.1854794132E+03      0.1855112447E+03

    ------------------------------------------------
       NWT REQUIRED            6 OUTER ITERATIONS 
       AND A TOTAL OF         18 INNER ITERATIONS.
    ------------------------------------------------

 NO OUTPUT CONTROL FOR STRESS PERIOD   56   TIME STEP    5
 
 SOLVING FOR HEAD 
                                                   Max.-Head-Change                         Max.-Flux-Residual
  Residual-Control   Outer-Iter.   Inner-Iter.     Column Row Layer    Maximum-Head-Change  Column Row Layer    Maximum-Flux-Residual          L2-NORM 
          0                 1           6            56   99     3       0.2954361029E+01      60   62    2        -0.8535656239E+05      0.5203175002E+06
          0                 2           4            71   55     1      -0.1353008500E+01      60   62    2         0.8443476921E+04      0.5362279425E+05
          0                 3           3            55   80     2      -0.3204007444E+00      55   80    2        -0.9177725897E+04      0.9248445897E+04
          0                 4           2            55   80     1      -0.2994441473E-01      55   80    2        -0.8268302378E+03      0.9480562269E+03
          0                 5           2            55   99     3      -0.7960468763E-02      55   99    3        -0.2475515312E+03      0.2584800452E+03

    ------------------------------------------------
       NWT REQUIRED            5 OUTER ITERATIONS 
       AND A TOTAL OF         17 INNER ITERATIONS.
    ------------------------------------------------

 NO OUTPUT CONTROL FOR STRESS PERIOD   56   TIME STEP    6
 
 SOLVING FOR HEAD 
                                                   Max.-Head-Change                         Max.-Flux-Residual
  Residual-Control   Outer-Iter.   Inner-Iter.     Column Row Layer    Maximum-Head-Change  Column Row Layer    Maximum-Flux-Residual          L2-NORM 
          0                 1           6            56   99     3       0.2616864322E+01      60   62    2        -0.7486268982E+05      0.5050823621E+06
          0                 2           4            55   80     2      -0.9524129175E+01      60   71    2         0.1881136879E+05      0.5489900108E+05
          0                 3           2            55   80     1      -0.2602571239E+00      55   99    3        -0.3525861948E+03      0.5506611313E+03
          0                 4           2            55   99     3       0.8441745672E-02      55   99    3         0.2393548067E+03      0.2417683545E+03

    ------------------------------------------------
       NWT REQUIRED            4 OUTER ITERATIONS 
       AND A TOTAL OF         14 INNER ITERATIONS.
    ------------------------------------------------

 NO OUTPUT CONTROL FOR STRESS PERIOD   56   TIME STEP    7
 
 SOLVING FOR HEAD 
                                                   Max.-Head-Change                         Max.-Flux-Residual
  Residual-Control   Outer-Iter.   Inner-Iter.     Column Row Layer    Maximum-Head-Change  Column Row Layer    Maximum-Flux-Residual          L2-NORM 
          0                 1           6            56   99     3       0.2320893499E+01      91   67    1         0.7022071641E+05      0.4931208353E+06
          0                 2           4            24   83     2      -0.5708074561E+00      59   61    1        -0.2212166778E+05      0.5529170635E+05
          0                 3           3            59   61     1       0.3695824648E-01      59   61    1         0.2190570485E+04      0.2332901091E+04
          0                 4           2            55   99     3       0.6682541092E-02      55   99    3         0.1894214754E+03      0.1900422063E+03

    ------------------------------------------------
       NWT REQUIRED            4 OUTER ITERATIONS 
       AND A TOTAL OF         15 INNER ITERATIONS.
    ------------------------------------------------

 NO OUTPUT CONTROL FOR STRESS PERIOD   56   TIME STEP    8
 
 SOLVING FOR HEAD 
                                                   Max.-Head-Change                         Max.-Flux-Residual
  Residual-Control   Outer-Iter.   Inner-Iter.     Column Row Layer    Maximum-Head-Change  Column Row Layer    Maximum-Flux-Residual          L2-NORM 
          0                 1           6            56   99     3       0.2060102621E+01      91   67    1         0.6797371475E+05      0.4826127354E+06
          0                 2           4            72   15     1      -0.1489279421E+01      60   60    1        -0.1322464026E+05      0.5161682774E+05
          0                 3           2            72   15     1       0.1283882839E+00      60   60    1         0.1300780981E+04      0.1605387301E+04
          0                 4           2            55   99     3       0.5479639516E-02      55   99    3         0.1552853450E+03      0.1567174578E+03

    ------------------------------------------------
       NWT REQUIRED            4 OUTER ITERATIONS 
       AND A TOTAL OF         14 INNER ITERATIONS.
    ------------------------------------------------

 NO OUTPUT CONTROL FOR STRESS PERIOD   56   TIME STEP    9
 
 SOLVING FOR HEAD 
                                                   Max.-Head-Change                         Max.-Flux-Residual
  Residual-Control   Outer-Iter.   Inner-Iter.     Column Row Layer    Maximum-Head-Change  Column Row Layer    Maximum-Flux-Residual          L2-NORM 
          0                 1           6            56   99     3       0.1829514279E+01      91   67    1         0.6585685553E+05      0.4745145597E+06
          0                 2           4            56   99     3      -0.1641350987E+00      59  102    2         0.8747060723E+04      0.4832334992E+05
          0                 3           2            55   99     3      -0.7605876505E-02      55   99    3        -0.1962385902E+03      0.2987791809E+03

    ------------------------------------------------
       NWT REQUIRED            3 OUTER ITERATIONS 
       AND A TOTAL OF         12 INNER ITERATIONS.
    ------------------------------------------------

 NO OUTPUT CONTROL FOR STRESS PERIOD   56   TIME STEP   10
 
 SOLVING FOR HEAD 
                                                   Max.-Head-Change                         Max.-Flux-Residual
  Residual-Control   Outer-Iter.   Inner-Iter.     Column Row Layer    Maximum-Head-Change  Column Row Layer    Maximum-Flux-Residual          L2-NORM 
          0                 1           6            91   67     1       0.1749962544E+01      91   67    1         0.6386177911E+05      0.4681968896E+06
          0                 2           4            61   64     2       0.3163773056E+00      61   64    2         0.1607364182E+05      0.5079957213E+05
          0                 3           2            55   99     3      -0.3577538791E-02      55   99    3        -0.9231991846E+02      0.1057801002E+03

    ------------------------------------------------
       NWT REQUIRED            3 OUTER ITERATIONS 
       AND A TOTAL OF         12 INNER ITERATIONS.
    ------------------------------------------------

 NO OUTPUT CONTROL FOR STRESS PERIOD   56   TIME STEP   11
 
 SOLVING FOR HEAD 
                                                   Max.-Head-Change                         Max.-Flux-Residual
  Residual-Control   Outer-Iter.   Inner-Iter.     Column Row Layer    Maximum-Head-Change  Column Row Layer    Maximum-Flux-Residual          L2-NORM 
          0                 1           6            91   67     1       0.1699967136E+01      91   67    1         0.6198297370E+05      0.4615030270E+06
          0                 2           4            61   64     1      -0.2648204696E+00      61   57    2         0.1416892339E+05      0.5352579856E+05
          0                 3           2            63  106     1      -0.2740025315E-01      58   62    1        -0.1425821372E+04      0.2176840575E+04
          0                 4           2            63  106     1      -0.2475014017E-02      58   62    1        -0.1294239470E+03      0.1824514188E+03

    ------------------------------------------------
       NWT REQUIRED            4 OUTER ITERATIONS 
       AND A TOTAL OF         14 INNER ITERATIONS.
    ------------------------------------------------

 OUTPUT CONTROL FOR STRESS PERIOD   56   TIME STEP   12
    SAVE BUDGET
    SAVE HEAD FOR LAYERS:   1  2  3
 UBDSV1 SAVING "         STORAGE" ON UNIT  39 AT TIME STEP 12, STRESS PERIOD  56
 UBDSV2 SAVING "   CONSTANT HEAD" ON UNIT  39 AT TIME STEP 12, STRESS PERIOD  56
 UBDSV1 SAVING "FLOW RIGHT FACE " ON UNIT  39 AT TIME STEP 12, STRESS PERIOD  56
 UBDSV1 SAVING "FLOW FRONT FACE " ON UNIT  39 AT TIME STEP 12, STRESS PERIOD  56
 UBDSV1 SAVING "FLOW LOWER FACE " ON UNIT  39 AT TIME STEP 12, STRESS PERIOD  56
 UBDSV4 SAVING "           WELLS" ON UNIT  39 AT TIME STEP 12, STRESS PERIOD  56
 UBDSV3 SAVING "              ET" ON UNIT  39 AT TIME STEP 12, STRESS PERIOD  56
 UBDSV3 SAVING "        RECHARGE" ON UNIT  39 AT TIME STEP 12, STRESS PERIOD  56

 HEAD WILL BE SAVED ON UNIT   31 AT END OF TIME STEP   12, STRESS PERIOD   56
1
  VOLUMETRIC BUDGET FOR ENTIRE MODEL AT END OF TIME STEP   12, STRESS PERIOD  56
  ------------------------------------------------------------------------------

     CUMULATIVE VOLUMES      L**3       RATES FOR THIS TIME STEP      L**3/T
     ------------------                 ------------------------

           IN:                                      IN:
           ---                                      ---
             STORAGE =357710069760.0000               STORAGE =    18298462.0000
       CONSTANT HEAD = 36063076352.0000         CONSTANT HEAD =     2619344.7500
               WELLS = 25068783616.0000                 WELLS =     1225642.0000
                  ET =           0.0000                    ET =           0.0000
            RECHARGE =422038568960.0000              RECHARGE =    20951054.0000

            TOTAL IN =840880488448.0000              TOTAL IN =    43094504.0000

          OUT:                                     OUT:
          ----                                     ----
             STORAGE = 81623605248.0000               STORAGE =     2582039.2500
       CONSTANT HEAD = 65060438016.0000         CONSTANT HEAD =     2228026.5000
               WELLS =672857063424.0000                 WELLS =    37013604.0000
                  ET = 21338945536.0000                    ET =     1270886.5000
            RECHARGE =           0.0000              RECHARGE =           0.0000

           TOTAL OUT =840880029696.0000             TOTAL OUT =    43094560.0000

            IN - OUT =      458752.0000              IN - OUT =         -56.0000

 PERCENT DISCREPANCY =           0.00     PERCENT DISCREPANCY =          -0.00






         TIME SUMMARY AT END OF TIME STEP   12 IN STRESS PERIOD   56
                    SECONDS     MINUTES      HOURS       DAYS        YEARS
                    -----------------------------------------------------------
   TIME STEP LENGTH 2.62800E+06  43800.      730.00      30.417     8.32763E-02
 STRESS PERIOD TIME 3.15360E+07 5.25600E+05  8760.0      365.00     0.99932    
         TOTAL TIME 1.76722E+09 2.94537E+07 4.90896E+05  20454.      56.000    
1
1
                            STRESS PERIOD NO.   57, LENGTH =   366.0000    
                            -----------------------------------------------

                              NUMBER OF TIME STEPS =    12

                               MULTIPLIER FOR DELT =     1.000

                            INITIAL TIME STEP SIZE =   30.50000    

   1717 WELLS

 REUSING SURF FROM LAST STRESS PERIOD

 REUSING EVTR FROM LAST STRESS PERIOD

 REUSING EXDP FROM LAST STRESS PERIOD



                           RECHARGE
 READING ON UNIT   16 WITH FORMAT: (15F5.0)            


     63 TIME-VARIANT SPECIFIED-HEAD CELLS
 
 SOLVING FOR HEAD 
                                                   Max.-Head-Change                         Max.-Flux-Residual
  Residual-Control   Outer-Iter.   Inner-Iter.     Column Row Layer    Maximum-Head-Change  Column Row Layer    Maximum-Flux-Residual          L2-NORM 
          0                 1           7            87   54     3      -0.3756506062E+02      54   47    2         0.3279830489E+06      0.1158582690E+07
          0                 2           5            87   54     3       0.3787676483E+01      24   22    1        -0.6367005336E+05      0.1486536712E+06
          0                 3           3            23   48     2      -0.1757751520E+00      23   48    2        -0.4281013771E+04      0.5611988127E+04
          0                 4           2            55  100     3       0.7039787898E-01      55  100    3         0.2055636340E+04      0.2123135066E+04
          0                 5           2            55  100     3      -0.4163588423E-01      55  100    3        -0.1332893143E+04      0.1343996347E+04
          0                 6           2            55  100     3       0.1940840352E-01      55  100    3         0.6802699332E+03      0.6826371649E+03
          0                 7           2            55  100     3      -0.6648902126E-02      55  100    3        -0.2548283578E+03      0.2551355341E+03

    ------------------------------------------------
       NWT REQUIRED            7 OUTER ITERATIONS 
       AND A TOTAL OF         23 INNER ITERATIONS.
    ------------------------------------------------

 NO OUTPUT CONTROL FOR STRESS PERIOD   57   TIME STEP    1
 
 SOLVING FOR HEAD 
                                                   Max.-Head-Change                         Max.-Flux-Residual
  Residual-Control   Outer-Iter.   Inner-Iter.     Column Row Layer    Maximum-Head-Change  Column Row Layer    Maximum-Flux-Residual          L2-NORM 
          0                 1           6            56   99     3       0.7024355673E+01      56   99    3         0.1674116654E+06      0.8806951884E+06
          0                 2           5            23   48     2      -0.2065729668E+01      59   62    2         0.2924814051E+05      0.9795398446E+05
          0                 3           3            23   48     2       0.1814245786E+00      58   64    1        -0.2922468587E+04      0.3481485992E+04
          0                 4           2            55  100     3       0.3157380537E-01      55  100    3         0.9218560145E+03      0.9803474080E+03
          0                 5           2            55  100     3      -0.1840641443E-01      55  100    3        -0.5891594157E+03      0.5966569021E+03
          0                 6           2            55  100     3       0.8375620115E-02      55  100    3         0.2935265461E+03      0.2951800430E+03

    ------------------------------------------------
       NWT REQUIRED            6 OUTER ITERATIONS 
       AND A TOTAL OF         20 INNER ITERATIONS.
    ------------------------------------------------

 NO OUTPUT CONTROL FOR STRESS PERIOD   57   TIME STEP    2
 
 SOLVING FOR HEAD 
                                                   Max.-Head-Change                         Max.-Flux-Residual
  Residual-Control   Outer-Iter.   Inner-Iter.     Column Row Layer    Maximum-Head-Change  Column Row Layer    Maximum-Flux-Residual          L2-NORM 
          0                 1           6            56   99     3       0.6160836120E+01      56   99    3         0.1462177479E+06      0.7888524627E+06
          0                 2           5            79   70     1      -0.1646617593E+01      59   62    1        -0.2988723642E+05      0.8700936965E+05
          0                 3           3            79   70     1       0.1382847081E+00      59   62    1         0.2959346522E+04      0.4023651552E+04
          0                 4           2            55  100     3       0.1789142367E-01      55  100    3         0.5222210950E+03      0.5483786444E+03
          0                 5           2            55  100     3      -0.1036228191E-01      55  100    3        -0.3315880070E+03      0.3348749641E+03
          0                 6           2            55  100     3       0.4666462127E-02      55  100    3         0.1634965797E+03      0.1642396247E+03

    ------------------------------------------------
       NWT REQUIRED            6 OUTER ITERATIONS 
       AND A TOTAL OF         20 INNER ITERATIONS.
    ------------------------------------------------

 NO OUTPUT CONTROL FOR STRESS PERIOD   57   TIME STEP    3
 
 SOLVING FOR HEAD 
                                                   Max.-Head-Change                         Max.-Flux-Residual
  Residual-Control   Outer-Iter.   Inner-Iter.     Column Row Layer    Maximum-Head-Change  Column Row Layer    Maximum-Flux-Residual          L2-NORM 
          0                 1           6            56   99     3       0.5420241204E+01      56   99    3         0.1282506313E+06      0.7370359310E+06
          0                 2           4            68   52     1      -0.1268530687E+01      88   51    1         0.1484052708E+05      0.7957555123E+05
          0                 3           3            68   52     1       0.1113746638E+00      68   52    1         0.1063202960E+04      0.1701029557E+04
          0                 4           2            55  100     3       0.1108573408E-01      55  100    3         0.3234498337E+03      0.3284091735E+03
          0                 5           2            55  100     3      -0.6393591061E-02      55  100    3        -0.2045196165E+03      0.2053811018E+03

    ------------------------------------------------
       NWT REQUIRED            5 OUTER ITERATIONS 
       AND A TOTAL OF         17 INNER ITERATIONS.
    ------------------------------------------------

 NO OUTPUT CONTROL FOR STRESS PERIOD   57   TIME STEP    4
 
 SOLVING FOR HEAD 
                                                   Max.-Head-Change                         Max.-Flux-Residual
  Residual-Control   Outer-Iter.   Inner-Iter.     Column Row Layer    Maximum-Head-Change  Column Row Layer    Maximum-Flux-Residual          L2-NORM 
          0                 1           6            56   99     3       0.4789979274E+01      56   99    3         0.1129140686E+06      0.7017502145E+06
          0                 2           4            56   99     3      -0.4322767749E+00      56   99    3        -0.1134010068E+05      0.7101701642E+05
          0                 3           2            26   20     1       0.7802834076E-02      26   20    1         0.4259537223E+03      0.5181148619E+03

    ------------------------------------------------
       NWT REQUIRED            3 OUTER ITERATIONS 
       AND A TOTAL OF         12 INNER ITERATIONS.
    ------------------------------------------------

 NO OUTPUT CONTROL FOR STRESS PERIOD   57   TIME STEP    5
 
 SOLVING FOR HEAD 
                                                   Max.-Head-Change                         Max.-Flux-Residual
  Residual-Control   Outer-Iter.   Inner-Iter.     Column Row Layer    Maximum-Head-Change  Column Row Layer    Maximum-Flux-Residual          L2-NORM 
          0                 1           6            56   99     3       0.4240579766E+01      56   99    3         0.9972517423E+05      0.6748823706E+06
          0                 2           4            73   58     1      -0.7957714773E+00      58   42    2         0.1192567904E+05      0.6904504836E+05
          0                 3           2            73   58     1       0.6767002098E-01      26   21    1         0.3139888220E+03      0.4804210985E+03
          0                 4           2            55  100     3       0.1883307849E-02      55  100    3         0.5488599275E+02      0.5651854171E+02

    ------------------------------------------------
       NWT REQUIRED            4 OUTER ITERATIONS 
       AND A TOTAL OF         14 INNER ITERATIONS.
    ------------------------------------------------

 NO OUTPUT CONTROL FOR STRESS PERIOD   57   TIME STEP    6
 
 SOLVING FOR HEAD 
                                                   Max.-Head-Change                         Max.-Flux-Residual
  Residual-Control   Outer-Iter.   Inner-Iter.     Column Row Layer    Maximum-Head-Change  Column Row Layer    Maximum-Flux-Residual          L2-NORM 
          0                 1           6            56   99     3       0.3761783776E+01      56   99    3         0.8829280225E+05      0.6525134051E+06
          0                 2           4            56   99     3      -0.3393298940E+00      62   86    2         0.1131882567E+05      0.6639170963E+05
          0                 3           2            60   98     1       0.1285836892E-01      60   98    1         0.4859907783E+03      0.5611628624E+03
          0                 4           2            55  100     3       0.3098085675E-02      55  100    3         0.9025278011E+02      0.9451221856E+02

    ------------------------------------------------
       NWT REQUIRED            4 OUTER ITERATIONS 
       AND A TOTAL OF         14 INNER ITERATIONS.
    ------------------------------------------------

 NO OUTPUT CONTROL FOR STRESS PERIOD   57   TIME STEP    7
 
 SOLVING FOR HEAD 
                                                   Max.-Head-Change                         Max.-Flux-Residual
  Residual-Control   Outer-Iter.   Inner-Iter.     Column Row Layer    Maximum-Head-Change  Column Row Layer    Maximum-Flux-Residual          L2-NORM 
          0                 1           6            56   99     3       0.3342661897E+01      81   46    1        -0.8163164203E+05      0.6342535902E+06
          0                 2           5            59   96     2      -0.1829495477E+01      59   96    2        -0.1214385788E+05      0.6538052103E+05
          0                 3           3            59   96     2       0.2167358840E+00      59   96    2         0.1870825464E+04      0.2244481731E+04
          0                 4           2            18   15     2       0.3916058841E-02      18   15    2         0.4911096347E+03      0.5065992686E+03

    ------------------------------------------------
       NWT REQUIRED            4 OUTER ITERATIONS 
       AND A TOTAL OF         16 INNER ITERATIONS.
    ------------------------------------------------

 NO OUTPUT CONTROL FOR STRESS PERIOD   57   TIME STEP    8
 
 SOLVING FOR HEAD 
                                                   Max.-Head-Change                         Max.-Flux-Residual
  Residual-Control   Outer-Iter.   Inner-Iter.     Column Row Layer    Maximum-Head-Change  Column Row Layer    Maximum-Flux-Residual          L2-NORM 
          0                 1           6            56   99     3       0.2974343291E+01      81   46    1        -0.7898507784E+05      0.6191951445E+06
          0                 2           4            56   79     2      -0.5640115757E+00      68   51    2         0.1412634123E+05      0.6401675962E+05
          0                 3           2            56   79     2       0.3862739043E-01      64   94    1         0.3639215081E+03      0.4889679341E+03
          0                 4           2            55  100     3       0.4223422277E-02      55  100    3         0.1229760914E+03      0.1278307567E+03

    ------------------------------------------------
       NWT REQUIRED            4 OUTER ITERATIONS 
       AND A TOTAL OF         14 INNER ITERATIONS.
    ------------------------------------------------

 NO OUTPUT CONTROL FOR STRESS PERIOD   57   TIME STEP    9
 
 SOLVING FOR HEAD 
                                                   Max.-Head-Change                         Max.-Flux-Residual
  Residual-Control   Outer-Iter.   Inner-Iter.     Column Row Layer    Maximum-Head-Change  Column Row Layer    Maximum-Flux-Residual          L2-NORM 
          0                 1           6            56   99     3       0.2649878856E+01      81   46    1        -0.7644679843E+05      0.6061351287E+06
          0                 2           4            58   42     1      -0.7137355911E+00      58   42    1        -0.1127726981E+05      0.6286576029E+05
          0                 3           2            58   42     1       0.6340587718E-01      58   42    1         0.1099741623E+04      0.1276596401E+04
          0                 4           2            55  100     3       0.4294474388E-02      55  100    3         0.1250203318E+03      0.1305094519E+03

    ------------------------------------------------
       NWT REQUIRED            4 OUTER ITERATIONS 
       AND A TOTAL OF         14 INNER ITERATIONS.
    ------------------------------------------------

 NO OUTPUT CONTROL FOR STRESS PERIOD   57   TIME STEP   10
 
 SOLVING FOR HEAD 
                                                   Max.-Head-Change                         Max.-Flux-Residual
  Residual-Control   Outer-Iter.   Inner-Iter.     Column Row Layer    Maximum-Head-Change  Column Row Layer    Maximum-Flux-Residual          L2-NORM 
          0                 1           6            81   45     1      -0.2537860284E+01      81   46    1        -0.7401207746E+05      0.5951096939E+06
          0                 2           4            81   45     1       0.2304354643E+00      45   36    2         0.1196848450E+05      0.6312437285E+05
          0                 3           2            58   73     1      -0.1143099347E-01      58   73    1        -0.7834486606E+03      0.9494484487E+03
          0                 4           2            55  100     3       0.4141268229E-02      55  100    3         0.1205268102E+03      0.1449552059E+03

    ------------------------------------------------
       NWT REQUIRED            4 OUTER ITERATIONS 
       AND A TOTAL OF         14 INNER ITERATIONS.
    ------------------------------------------------

 NO OUTPUT CONTROL FOR STRESS PERIOD   57   TIME STEP   11
 
 SOLVING FOR HEAD 
                                                   Max.-Head-Change                         Max.-Flux-Residual
  Residual-Control   Outer-Iter.   Inner-Iter.     Column Row Layer    Maximum-Head-Change  Column Row Layer    Maximum-Flux-Residual          L2-NORM 
          0                 1           6            81   45     1      -0.2446511923E+01      81   46    1        -0.7167635383E+05      0.5852416852E+06
          0                 2           4            34   70     2      -0.2181976512E+01      81   46    1         0.7157776019E+04      0.5959557602E+05
          0                 3           2            34   70     2       0.2426735958E+00      58   73    1         0.5791127143E+03      0.9049845663E+03
          0                 4           2            34   70     2       0.4455890778E-02      55  100    3         0.1116772896E+03      0.1264966693E+03

    ------------------------------------------------
       NWT REQUIRED            4 OUTER ITERATIONS 
       AND A TOTAL OF         14 INNER ITERATIONS.
    ------------------------------------------------

 OUTPUT CONTROL FOR STRESS PERIOD   57   TIME STEP   12
    SAVE BUDGET
 UBDSV1 SAVING "         STORAGE" ON UNIT  39 AT TIME STEP 12, STRESS PERIOD  57
 UBDSV2 SAVING "   CONSTANT HEAD" ON UNIT  39 AT TIME STEP 12, STRESS PERIOD  57
 UBDSV1 SAVING "FLOW RIGHT FACE " ON UNIT  39 AT TIME STEP 12, STRESS PERIOD  57
 UBDSV1 SAVING "FLOW FRONT FACE " ON UNIT  39 AT TIME STEP 12, STRESS PERIOD  57
 UBDSV1 SAVING "FLOW LOWER FACE " ON UNIT  39 AT TIME STEP 12, STRESS PERIOD  57
 UBDSV4 SAVING "           WELLS" ON UNIT  39 AT TIME STEP 12, STRESS PERIOD  57
 UBDSV3 SAVING "              ET" ON UNIT  39 AT TIME STEP 12, STRESS PERIOD  57
 UBDSV3 SAVING "        RECHARGE" ON UNIT  39 AT TIME STEP 12, STRESS PERIOD  57
1
  VOLUMETRIC BUDGET FOR ENTIRE MODEL AT END OF TIME STEP   12, STRESS PERIOD  57
  ------------------------------------------------------------------------------

     CUMULATIVE VOLUMES      L**3       RATES FOR THIS TIME STEP      L**3/T
     ------------------                 ------------------------

           IN:                                      IN:
           ---                                      ---
             STORAGE =366961262592.0000               STORAGE =    24485328.0000
       CONSTANT HEAD = 37001510912.0000         CONSTANT HEAD =     2537033.5000
               WELLS = 25517369344.0000                 WELLS =     1225642.0000
                  ET =           0.0000                    ET =           0.0000
            RECHARGE =427458265088.0000              RECHARGE =    14807526.0000

            TOTAL IN =856938381312.0000              TOTAL IN =    43055528.0000

          OUT:                                     OUT:
          ----                                     ----
             STORAGE = 82192195584.0000               STORAGE =     1005807.3125
       CONSTANT HEAD = 65845862400.0000         CONSTANT HEAD =     2110267.0000
               WELLS =687246409728.0000                 WELLS =    39312048.0000
                  ET = 21653403648.0000                    ET =      627504.4375
            RECHARGE =           0.0000              RECHARGE =           0.0000

           TOTAL OUT =856937857024.0000             TOTAL OUT =    43055628.0000

            IN - OUT =      524288.0000              IN - OUT =        -100.0000

 PERCENT DISCREPANCY =           0.00     PERCENT DISCREPANCY =          -0.00






         TIME SUMMARY AT END OF TIME STEP   12 IN STRESS PERIOD   57
                    SECONDS     MINUTES      HOURS       DAYS        YEARS
                    -----------------------------------------------------------
   TIME STEP LENGTH 2.63520E+06  43920.      732.00      30.500     8.35044E-02
 STRESS PERIOD TIME 3.16224E+07 5.27040E+05  8784.0      366.00      1.0021    
         TOTAL TIME 1.79885E+09 2.99808E+07 4.99680E+05  20820.      57.002    
1
1
                            STRESS PERIOD NO.   58, LENGTH =   365.0000    
                            -----------------------------------------------

                              NUMBER OF TIME STEPS =    12

                               MULTIPLIER FOR DELT =     1.000

                            INITIAL TIME STEP SIZE =   30.41667    

   1706 WELLS

 REUSING SURF FROM LAST STRESS PERIOD

 REUSING EVTR FROM LAST STRESS PERIOD

 REUSING EXDP FROM LAST STRESS PERIOD



                           RECHARGE
 READING ON UNIT   16 WITH FORMAT: (15F5.0)            


     63 TIME-VARIANT SPECIFIED-HEAD CELLS
 
 SOLVING FOR HEAD 
                                                   Max.-Head-Change                         Max.-Flux-Residual
  Residual-Control   Outer-Iter.   Inner-Iter.     Column Row Layer    Maximum-Head-Change  Column Row Layer    Maximum-Flux-Residual          L2-NORM 
          0                 1           7            84   50     3      -0.3096334035E+02      55  107    3         0.1738273780E+06      0.8857830366E+06
          0                 2           5            84   50     3       0.2843628282E+01      51   36    2         0.7208160804E+05      0.1228113197E+06
          0                 3           2            55  107     2       0.4540065613E-01      55   99    3         0.1118191419E+04      0.1830064146E+04
          0                 4           2            55   99     3      -0.1745353605E-01      55   99    3        -0.4916750388E+03      0.5024014350E+03
          0                 5           2            55   99     3       0.5037295221E-02      55   99    3         0.1555822719E+03      0.1556162706E+03

    ------------------------------------------------
       NWT REQUIRED            5 OUTER ITERATIONS 
       AND A TOTAL OF         18 INNER ITERATIONS.
    ------------------------------------------------

 NO OUTPUT CONTROL FOR STRESS PERIOD   58   TIME STEP    1
 
 SOLVING FOR HEAD 
                                                   Max.-Head-Change                         Max.-Flux-Residual
  Residual-Control   Outer-Iter.   Inner-Iter.     Column Row Layer    Maximum-Head-Change  Column Row Layer    Maximum-Flux-Residual          L2-NORM 
          0                 1           6            84   50     3      -0.5252693501E+01      56   99    3        -0.8637118334E+05      0.6572929294E+06
          0                 2           4            82   52     1      -0.5409130977E+01      82   52    1        -0.1594798816E+05      0.6937133170E+05
          0                 3           2            82   52     1       0.4193195796E+00      82   52    1         0.1360856522E+04      0.2111770320E+04
          0                 4           2            55   99     3      -0.1166895129E-01      55   99    3        -0.3288162793E+03      0.3493342937E+03
          0                 5           2            55   99     3       0.3527131174E-02      55   99    3         0.1089737787E+03      0.1090843446E+03

    ------------------------------------------------
       NWT REQUIRED            5 OUTER ITERATIONS 
       AND A TOTAL OF         16 INNER ITERATIONS.
    ------------------------------------------------

 NO OUTPUT CONTROL FOR STRESS PERIOD   58   TIME STEP    2
 
 SOLVING FOR HEAD 
                                                   Max.-Head-Change                         Max.-Flux-Residual
  Residual-Control   Outer-Iter.   Inner-Iter.     Column Row Layer    Maximum-Head-Change  Column Row Layer    Maximum-Flux-Residual          L2-NORM 
          0                 1           6            82   52     1      -0.5808099274E+01      56   99    3        -0.7375447517E+05      0.6064795318E+06
          0                 2           4            66  100     1      -0.6118188555E+00      43   32    1         0.7854997603E+04      0.6147106693E+05
          0                 3           2            66  100     1       0.4803559144E-01      43   32    1        -0.1338340390E+04      0.1638484529E+04
          0                 4           2            55   99     3      -0.7195676502E-02      55   99    3        -0.2028144943E+03      0.2307307092E+03

    ------------------------------------------------
       NWT REQUIRED            4 OUTER ITERATIONS 
       AND A TOTAL OF         14 INNER ITERATIONS.
    ------------------------------------------------

 NO OUTPUT CONTROL FOR STRESS PERIOD   58   TIME STEP    3
 
 SOLVING FOR HEAD 
                                                   Max.-Head-Change                         Max.-Flux-Residual
  Residual-Control   Outer-Iter.   Inner-Iter.     Column Row Layer    Maximum-Head-Change  Column Row Layer    Maximum-Flux-Residual          L2-NORM 
          0                 1           6            56   99     3      -0.2640896354E+01      81   46    1        -0.7110833938E+05      0.5827745479E+06
          0                 2           4            65    7     2      -0.5835290951E+01      43   32    1         0.8445733367E+04      0.5934783732E+05
          0                 3           3            65    7     2       0.2749299452E+00      43   32    1        -0.1643660454E+04      0.1766895041E+04
          0                 4           2            65    7     2       0.1199658012E-01      55   99    3        -0.1243456805E+03      0.1695886823E+03
          0                 5           2            55   99     3       0.1383627568E-02      55   99    3         0.4277096399E+02      0.4324270565E+02

    ------------------------------------------------
       NWT REQUIRED            5 OUTER ITERATIONS 
       AND A TOTAL OF         17 INNER ITERATIONS.
    ------------------------------------------------

 NO OUTPUT CONTROL FOR STRESS PERIOD   58   TIME STEP    4
 
 SOLVING FOR HEAD 
                                                   Max.-Head-Change                         Max.-Flux-Residual
  Residual-Control   Outer-Iter.   Inner-Iter.     Column Row Layer    Maximum-Head-Change  Column Row Layer    Maximum-Flux-Residual          L2-NORM 
          0                 1           6            65    7     2      -0.2929873663E+01      81   46    1        -0.6898375682E+05      0.5676444847E+06
          0                 2           4            91   68     1      -0.2457245832E+00      43   32    1         0.8566492050E+04      0.5773006493E+05
          0                 3           3            91   68     1       0.2079973884E-01      43   32    1        -0.1818376155E+04      0.1913602844E+04
          0                 4           2            55   99     3      -0.2375338422E-02      43   32    1         0.1153390538E+03      0.1461088810E+03

    ------------------------------------------------
       NWT REQUIRED            4 OUTER ITERATIONS 
       AND A TOTAL OF         15 INNER ITERATIONS.
    ------------------------------------------------

 NO OUTPUT CONTROL FOR STRESS PERIOD   58   TIME STEP    5
 
 SOLVING FOR HEAD 
                                                   Max.-Head-Change                         Max.-Flux-Residual
  Residual-Control   Outer-Iter.   Inner-Iter.     Column Row Layer    Maximum-Head-Change  Column Row Layer    Maximum-Flux-Residual          L2-NORM 
          0                 1           6            81   45     1      -0.2231909023E+01      81   46    1        -0.6690826952E+05      0.5567505149E+06
          0                 2           4            73   15     2      -0.7811950712E+00      43   32    1         0.8483209009E+04      0.5703076057E+05
          0                 3           3            73   15     2       0.6520865136E-01      43   32    1        -0.1904138624E+04      0.2057397424E+04
          0                 4           2            43   32     1       0.1428486311E-02      43   32    1         0.1409533691E+03      0.1500392441E+03

    ------------------------------------------------
       NWT REQUIRED            4 OUTER ITERATIONS 
       AND A TOTAL OF         15 INNER ITERATIONS.
    ------------------------------------------------

 NO OUTPUT CONTROL FOR STRESS PERIOD   58   TIME STEP    6
 
 SOLVING FOR HEAD 
                                                   Max.-Head-Change                         Max.-Flux-Residual
  Residual-Control   Outer-Iter.   Inner-Iter.     Column Row Layer    Maximum-Head-Change  Column Row Layer    Maximum-Flux-Residual          L2-NORM 
          0                 1           6            81   45     1      -0.2155991709E+01      81   46    1        -0.6491531839E+05      0.5485182632E+06
          0                 2           4            70   17     1      -0.7290750125E+00      62   89    2         0.1300978771E+05      0.5733702725E+05
          0                 3           3            70   17     1       0.6191559018E-01      43   32    1        -0.1928933074E+04      0.2194699831E+04
          0                 4           2            43   32     1       0.1579593113E-02      43   32    1         0.1556725566E+03      0.1765272899E+03

    ------------------------------------------------
       NWT REQUIRED            4 OUTER ITERATIONS 
       AND A TOTAL OF         15 INNER ITERATIONS.
    ------------------------------------------------

 NO OUTPUT CONTROL FOR STRESS PERIOD   58   TIME STEP    7
 
 SOLVING FOR HEAD 
                                                   Max.-Head-Change                         Max.-Flux-Residual
  Residual-Control   Outer-Iter.   Inner-Iter.     Column Row Layer    Maximum-Head-Change  Column Row Layer    Maximum-Flux-Residual          L2-NORM 
          0                 1           6            81   45     1      -0.2087115217E+01      81   46    1        -0.6300353695E+05      0.5419339079E+06
          0                 2           4            62   89     1      -0.2433026170E+00      62   93    2         0.1144481411E+05      0.5745576714E+05
          0                 3           3            68   51     1      -0.9645801148E-01      68   51    1        -0.4227981062E+04      0.4721331135E+04
          0                 4           2            68   51     1      -0.8695738371E-02      68   51    1        -0.3810356761E+03      0.4134175753E+03

    ------------------------------------------------
       NWT REQUIRED            4 OUTER ITERATIONS 
       AND A TOTAL OF         15 INNER ITERATIONS.
    ------------------------------------------------

 NO OUTPUT CONTROL FOR STRESS PERIOD   58   TIME STEP    8
 
 SOLVING FOR HEAD 
                                                   Max.-Head-Change                         Max.-Flux-Residual
  Residual-Control   Outer-Iter.   Inner-Iter.     Column Row Layer    Maximum-Head-Change  Column Row Layer    Maximum-Flux-Residual          L2-NORM 
          0                 1           6            81   45     1      -0.2020345051E+01      81   46    1        -0.6117076259E+05      0.5362566253E+06
          0                 2           4            68   51     1      -0.1094731444E+01      69   47    2         0.2790898359E+05      0.6162670521E+05
          0                 3           3            68   51     1       0.9481537185E-01      43   32    1        -0.1852099333E+04      0.2007275648E+04
          0                 4           2            43   32     1       0.1595501554E-02      43   32    1         0.1568438115E+03      0.1572995392E+03

    ------------------------------------------------
       NWT REQUIRED            4 OUTER ITERATIONS 
       AND A TOTAL OF         15 INNER ITERATIONS.
    ------------------------------------------------

 NO OUTPUT CONTROL FOR STRESS PERIOD   58   TIME STEP    9
 
 SOLVING FOR HEAD 
                                                   Max.-Head-Change                         Max.-Flux-Residual
  Residual-Control   Outer-Iter.   Inner-Iter.     Column Row Layer    Maximum-Head-Change  Column Row Layer    Maximum-Flux-Residual          L2-NORM 
          0                 1           6            81   45     1      -0.1956897113E+01      81   46    1        -0.5945031024E+05      0.5313751223E+06
          0                 2           4            69   56     1      -0.1291174227E+01      77   46    2         0.1470198958E+05      0.5709356012E+05
          0                 3           3            43   38     2      -0.1173008634E+00      43   38    2        -0.6504939900E+04      0.7463492325E+04
          0                 4           2            43   38     1      -0.1067182977E-01      43   38    2        -0.5857709335E+03      0.6676333032E+03
          0                 5           2            43   38     1      -0.9714230845E-03      43   38    2        -0.5269346359E+02      0.5883113604E+02

    ------------------------------------------------
       NWT REQUIRED            5 OUTER ITERATIONS 
       AND A TOTAL OF         17 INNER ITERATIONS.
    ------------------------------------------------

 NO OUTPUT CONTROL FOR STRESS PERIOD   58   TIME STEP   10
 
 SOLVING FOR HEAD 
                                                   Max.-Head-Change                         Max.-Flux-Residual
  Residual-Control   Outer-Iter.   Inner-Iter.     Column Row Layer    Maximum-Head-Change  Column Row Layer    Maximum-Flux-Residual          L2-NORM 
          0                 1           5            69   56     1      -0.1952022684E+01      81   46    1        -0.5779482824E+05      0.5268977905E+06
          0                 2           4            73   60     1      -0.1245942274E+01      50   38    2         0.8915118407E+04      0.5500085869E+05
          0                 3           3            73   60     1       0.1043050230E+00      58   67    1        -0.4762804604E+04      0.5125053362E+04
          0                 4           2            58   67     1      -0.6495491634E-02      58   67    1        -0.4293092089E+03      0.4496818363E+03

    ------------------------------------------------
       NWT REQUIRED            4 OUTER ITERATIONS 
       AND A TOTAL OF         14 INNER ITERATIONS.
    ------------------------------------------------

 NO OUTPUT CONTROL FOR STRESS PERIOD   58   TIME STEP   11
 
 SOLVING FOR HEAD 
                                                   Max.-Head-Change                         Max.-Flux-Residual
  Residual-Control   Outer-Iter.   Inner-Iter.     Column Row Layer    Maximum-Head-Change  Column Row Layer    Maximum-Flux-Residual          L2-NORM 
          0                 1           5            81   45     1      -0.1838832976E+01      81   46    1        -0.5620154430E+05      0.5228700416E+06
          0                 2           4            66    4     2      -0.5217350452E+00      51   38    2         0.1111697091E+05      0.5510931760E+05
          0                 3           3            43   32     1      -0.1823677929E-01      43   32    1        -0.1552970898E+04      0.1811960957E+04
          0                 4           2            43   32     1       0.1228135231E-02      43   32    1         0.1201037325E+03      0.1239634108E+03

    ------------------------------------------------
       NWT REQUIRED            4 OUTER ITERATIONS 
       AND A TOTAL OF         14 INNER ITERATIONS.
    ------------------------------------------------

 OUTPUT CONTROL FOR STRESS PERIOD   58   TIME STEP   12
    SAVE BUDGET
 UBDSV1 SAVING "         STORAGE" ON UNIT  39 AT TIME STEP 12, STRESS PERIOD  58
 UBDSV2 SAVING "   CONSTANT HEAD" ON UNIT  39 AT TIME STEP 12, STRESS PERIOD  58
 UBDSV1 SAVING "FLOW RIGHT FACE " ON UNIT  39 AT TIME STEP 12, STRESS PERIOD  58
 UBDSV1 SAVING "FLOW FRONT FACE " ON UNIT  39 AT TIME STEP 12, STRESS PERIOD  58
 UBDSV1 SAVING "FLOW LOWER FACE " ON UNIT  39 AT TIME STEP 12, STRESS PERIOD  58
 UBDSV4 SAVING "           WELLS" ON UNIT  39 AT TIME STEP 12, STRESS PERIOD  58
 UBDSV3 SAVING "              ET" ON UNIT  39 AT TIME STEP 12, STRESS PERIOD  58
 UBDSV3 SAVING "        RECHARGE" ON UNIT  39 AT TIME STEP 12, STRESS PERIOD  58
1
  VOLUMETRIC BUDGET FOR ENTIRE MODEL AT END OF TIME STEP   12, STRESS PERIOD  58
  ------------------------------------------------------------------------------

     CUMULATIVE VOLUMES      L**3       RATES FOR THIS TIME STEP      L**3/T
     ------------------                 ------------------------

           IN:                                      IN:
           ---                                      ---
             STORAGE =375942512640.0000               STORAGE =    24048120.0000
       CONSTANT HEAD = 37948600320.0000         CONSTANT HEAD =     2594290.0000
               WELLS = 25964726272.0000                 WELLS =     1225642.0000
                  ET =           0.0000                    ET =           0.0000
            RECHARGE =432599957504.0000              RECHARGE =    14087306.0000

            TOTAL IN =872455798784.0000              TOTAL IN =    41955360.0000

          OUT:                                     OUT:
          ----                                     ----
             STORAGE = 82575949824.0000               STORAGE =      700586.2500
       CONSTANT HEAD = 66556002304.0000         CONSTANT HEAD =     1843902.1250
               WELLS =701488300032.0000                 WELLS =    38987088.0000
                  ET = 21835259904.0000                    ET =      423783.2188
            RECHARGE =           0.0000              RECHARGE =           0.0000

           TOTAL OUT =872455536640.0000             TOTAL OUT =    41955364.0000

            IN - OUT =      262144.0000              IN - OUT =          -4.0000

 PERCENT DISCREPANCY =           0.00     PERCENT DISCREPANCY =          -0.00






         TIME SUMMARY AT END OF TIME STEP   12 IN STRESS PERIOD   58
                    SECONDS     MINUTES      HOURS       DAYS        YEARS
                    -----------------------------------------------------------
   TIME STEP LENGTH 2.62800E+06  43800.      730.00      30.417     8.32763E-02
 STRESS PERIOD TIME 3.15360E+07 5.25600E+05  8760.0      365.00     0.99932    
         TOTAL TIME 1.83038E+09 3.05064E+07 5.08439E+05  21185.      58.001    
1
1
                            STRESS PERIOD NO.   59, LENGTH =   365.0000    
                            -----------------------------------------------

                              NUMBER OF TIME STEPS =    12

                               MULTIPLIER FOR DELT =     1.000

                            INITIAL TIME STEP SIZE =   30.41667    

   1670 WELLS

 REUSING SURF FROM LAST STRESS PERIOD

 REUSING EVTR FROM LAST STRESS PERIOD

 REUSING EXDP FROM LAST STRESS PERIOD



                           RECHARGE
 READING ON UNIT   16 WITH FORMAT: (15F5.0)            


     63 TIME-VARIANT SPECIFIED-HEAD CELLS
 
 SOLVING FOR HEAD 
                                                   Max.-Head-Change                         Max.-Flux-Residual
  Residual-Control   Outer-Iter.   Inner-Iter.     Column Row Layer    Maximum-Head-Change  Column Row Layer    Maximum-Flux-Residual          L2-NORM 
          0                 1           7            92   77     2       0.1437216382E+03      54   47    2        -0.2543689464E+06      0.1424766357E+07
          0                 2           5            88   67     1      -0.3600111930E+02      88   67    1        -0.1490537389E+07      0.1815208079E+07
          0                 3           3            91   77     2       0.1126962407E+02      85   57    2        -0.5664328845E+05      0.6555340684E+05
          0                 4           3            91   77     2       0.1818565030E+01      55  100    3         0.3169020447E+05      0.3212886175E+05
          0                 5           3            55  100     3      -0.1266463495E+01      55  100    3        -0.4051884227E+05      0.4052183242E+05
          0                 6           3            55  100     3       0.1161761576E+01      55  100    3         0.4067614239E+05      0.4067617971E+05
          0                 7           3            55  100     3      -0.8473406402E+00      55  100    3        -0.3246118240E+05      0.3246119186E+05
          0                 8           3            55  100     3       0.5819816314E+00      55  100    3         0.2433160846E+05      0.2433161371E+05
          0                 9           2            55  100     3      -0.2839782822E+00      55  100    3        -0.1294866756E+05      0.1294867188E+05
          0                10           2            55  100     3       0.1266112820E+00      55  100    3         0.6280690332E+04      0.6280691745E+04
                                                   Max.-Head-Change                         Max.-Flux-Residual
  Residual-Control   Outer-Iter.   Inner-Iter.     Column Row Layer    Maximum-Head-Change  Column Row Layer    Maximum-Flux-Residual          L2-NORM 
          0                11           2            55  100     3      -0.3829346937E-01      55  100    3        -0.2064466766E+04      0.2064468096E+04
          0                12           2            55  100     3       0.8556385163E-02      55  100    3         0.4997730968E+03      0.4997738923E+03

    ------------------------------------------------
       NWT REQUIRED           12 OUTER ITERATIONS 
       AND A TOTAL OF         38 INNER ITERATIONS.
    ------------------------------------------------

 NO OUTPUT CONTROL FOR STRESS PERIOD   59   TIME STEP    1
 
 SOLVING FOR HEAD 
                                                   Max.-Head-Change                         Max.-Flux-Residual
  Residual-Control   Outer-Iter.   Inner-Iter.     Column Row Layer    Maximum-Head-Change  Column Row Layer    Maximum-Flux-Residual          L2-NORM 
          0                 1           7            92   52     1       0.4982572923E+01      83   51    1         0.1953383513E+06      0.1098508117E+07
          0                 2           5            85   57     2      -0.1933666503E+02      55  100    3         0.3150798520E+05      0.1204624631E+06
          0                 3           3            55  100     3      -0.1572143141E+01      55  100    3        -0.4179416569E+05      0.4181339313E+05
          0                 4           3            55  100     3       0.1370206709E+01      55  100    3         0.3995832625E+05      0.3995871384E+05
          0                 5           3            55  100     3      -0.8609834176E+00      55  100    3        -0.2755053296E+05      0.2755056852E+05
          0                 6           3            55  100     3       0.6206292654E+00      55  100    3         0.2172960137E+05      0.2172960779E+05
          0                 7           2            55  100     3      -0.3077177849E+00      55  100    3        -0.1178809112E+05      0.1178809735E+05
          0                 8           2            55  100     3       0.1489644495E+00      55  100    3         0.6227821454E+04      0.6227822986E+04
          0                 9           2            55  100     3      -0.4761421287E-01      55  100    3        -0.2171208468E+04      0.2171209882E+04
          0                10           2            55  100     3       0.1172438779E-01      55  100    3         0.5814027606E+03      0.5814030040E+03
          0                11           2            55  100     3      -0.1674399508E-02      55  100    3        -0.9039071883E+02      0.9039134107E+02

    ------------------------------------------------
       NWT REQUIRED           11 OUTER ITERATIONS 
       AND A TOTAL OF         34 INNER ITERATIONS.
    ------------------------------------------------

 NO OUTPUT CONTROL FOR STRESS PERIOD   59   TIME STEP    2
 
 SOLVING FOR HEAD 
                                                   Max.-Head-Change                         Max.-Flux-Residual
  Residual-Control   Outer-Iter.   Inner-Iter.     Column Row Layer    Maximum-Head-Change  Column Row Layer    Maximum-Flux-Residual          L2-NORM 
          0                 1           6            85   52     1       0.4406610548E+01      85   52    1         0.1784609873E+06      0.9542108671E+06
          0                 2           5            69   47     2       0.3634622871E+01      69   47    2         0.3105953852E+05      0.1027962560E+06
          0                 3           2            55  100     3      -0.5302967937E+00      55  100    3        -0.1409511792E+05      0.1459382012E+05
          0                 4           2            55  100     3       0.4667462270E+00      55  100    3         0.1361412497E+05      0.1361482237E+05
          0                 5           2            55  100     3      -0.3234019947E+00      55  100    3        -0.1034512651E+05      0.1034516234E+05
          0                 6           2            55  100     3       0.1988107195E+00      55  100    3         0.6962065481E+04      0.6962068306E+04
          0                 7           2            55  100     3      -0.8658739193E-01      55  100    3        -0.3316505278E+04      0.3316506941E+04
          0                 8           2            55  100     3       0.3123158480E-01      55  100    3         0.1305846429E+04      0.1305846859E+04
          0                 9           2            55  100     3      -0.7365735918E-02      55  100    3        -0.3358603041E+03      0.3358605317E+03

    ------------------------------------------------
       NWT REQUIRED            9 OUTER ITERATIONS 
       AND A TOTAL OF         25 INNER ITERATIONS.
    ------------------------------------------------

 NO OUTPUT CONTROL FOR STRESS PERIOD   59   TIME STEP    3
 
 SOLVING FOR HEAD 
                                                   Max.-Head-Change                         Max.-Flux-Residual
  Residual-Control   Outer-Iter.   Inner-Iter.     Column Row Layer    Maximum-Head-Change  Column Row Layer    Maximum-Flux-Residual          L2-NORM 
          0                 1           6            85   52     1       0.4057780606E+01      85   52    1         0.1648356586E+06      0.8588019950E+06
          0                 2           5            54   47     1      -0.7229870959E+00      85   52    1        -0.2313597510E+05      0.9305688861E+05
          0                 3           3            55  100     3      -0.2141574944E+00      55  100    3        -0.5692066283E+04      0.6361080362E+04
          0                 4           2            55  100     3       0.1753631332E+00      55  100    3         0.5115424458E+04      0.5117676668E+04
          0                 5           2            55  100     3      -0.1135261150E+00      55  100    3        -0.3631215632E+04      0.3631278742E+04
          0                 6           2            55  100     3       0.6108689037E-01      55  100    3         0.2139303536E+04      0.2139305423E+04
          0                 7           2            55  100     3      -0.2394451533E-01      55  100    3        -0.9170686875E+03      0.9170691860E+03
          0                 8           2            55  100     3       0.7045851709E-02      55  100    3         0.2946150423E+03      0.2946151727E+03

    ------------------------------------------------
       NWT REQUIRED            8 OUTER ITERATIONS 
       AND A TOTAL OF         24 INNER ITERATIONS.
    ------------------------------------------------

 NO OUTPUT CONTROL FOR STRESS PERIOD   59   TIME STEP    4
 
 SOLVING FOR HEAD 
                                                   Max.-Head-Change                         Max.-Flux-Residual
  Residual-Control   Outer-Iter.   Inner-Iter.     Column Row Layer    Maximum-Head-Change  Column Row Layer    Maximum-Flux-Residual          L2-NORM 
          0                 1           6            77   48     1       0.3711589723E+01      77   48    1         0.1497584843E+06      0.7882080250E+06
          0                 2           4            72   61     1      -0.1386821152E+01      77   48    1        -0.1586638728E+05      0.7943285225E+05
          0                 3           2            72   61     1       0.1134495971E+00      59   75    1        -0.3733355209E+04      0.5120647482E+04
          0                 4           2            55  100     3       0.8449602762E-01      55  100    3         0.2464835367E+04      0.2488406209E+04
          0                 5           2            55  100     3      -0.5169802655E-01      55  100    3        -0.1653526761E+04      0.1653850373E+04
          0                 6           2            55  100     3       0.2548967930E-01      55  100    3         0.8926704128E+03      0.8926759425E+03
          0                 7           2            55  100     3      -0.9200488663E-02      55  100    3        -0.3523608842E+03      0.3523611782E+03

    ------------------------------------------------
       NWT REQUIRED            7 OUTER ITERATIONS 
       AND A TOTAL OF         20 INNER ITERATIONS.
    ------------------------------------------------

 NO OUTPUT CONTROL FOR STRESS PERIOD   59   TIME STEP    5
 
 SOLVING FOR HEAD 
                                                   Max.-Head-Change                         Max.-Flux-Residual
  Residual-Control   Outer-Iter.   Inner-Iter.     Column Row Layer    Maximum-Head-Change  Column Row Layer    Maximum-Flux-Residual          L2-NORM 
          0                 1           6            77   48     1       0.3457735100E+01      77   48    1         0.1392169764E+06      0.7322195686E+06
          0                 2           4            77   48     1      -0.7140351949E+00      77   48    1        -0.3804684730E+05      0.8247087951E+05
          0                 3           2            55  100     3      -0.6351339233E-01      55  100    3        -0.1688107215E+04      0.1858837358E+04
          0                 4           2            55  100     3       0.4689200517E-01      55  100    3         0.1367881089E+04      0.1368424819E+04
          0                 5           2            55  100     3      -0.2738951806E-01      55  100    3        -0.8760042321E+03      0.8760420471E+03
          0                 6           2            55  100     3       0.1265098316E-01      55  100    3         0.4430416886E+03      0.4430428371E+03
          0                 7           2            55  100     3      -0.4263489317E-02      55  100    3        -0.1632771079E+03      0.1632772276E+03

    ------------------------------------------------
       NWT REQUIRED            7 OUTER ITERATIONS 
       AND A TOTAL OF         20 INNER ITERATIONS.
    ------------------------------------------------

 NO OUTPUT CONTROL FOR STRESS PERIOD   59   TIME STEP    6
 
 SOLVING FOR HEAD 
                                                   Max.-Head-Change                         Max.-Flux-Residual
  Residual-Control   Outer-Iter.   Inner-Iter.     Column Row Layer    Maximum-Head-Change  Column Row Layer    Maximum-Flux-Residual          L2-NORM 
          0                 1           6            76   48     1       0.3093902142E+01      76   48    1         0.1237245706E+06      0.6852791495E+06
          0                 2           4            60   86     2      -0.1435176850E+01      76   48    1        -0.2388420304E+05      0.7309654003E+05
          0                 3           3            60   86     2       0.1111658473E+00      55  100    3        -0.1186267331E+04      0.1432484084E+04
          0                 4           2            55  100     3       0.3179792551E-01      55  100    3         0.9275379813E+03      0.9278688023E+03
          0                 5           2            55  100     3      -0.1787850692E-01      55  100    3        -0.5717910858E+03      0.5718130064E+03
          0                 6           2            55  100     3       0.7857235277E-02      55  100    3         0.2751552790E+03      0.2751560148E+03

    ------------------------------------------------
       NWT REQUIRED            6 OUTER ITERATIONS 
       AND A TOTAL OF         19 INNER ITERATIONS.
    ------------------------------------------------

 NO OUTPUT CONTROL FOR STRESS PERIOD   59   TIME STEP    7
 
 SOLVING FOR HEAD 
                                                   Max.-Head-Change                         Max.-Flux-Residual
  Residual-Control   Outer-Iter.   Inner-Iter.     Column Row Layer    Maximum-Head-Change  Column Row Layer    Maximum-Flux-Residual          L2-NORM 
          0                 1           6            92   52     1       0.2891510064E+01      76   48    1         0.1090631047E+06      0.6464573560E+06
          0                 2           4            77   69     1      -0.4019909406E+00      34   26    2         0.1124958611E+05      0.6671043472E+05
          0                 3           2            55  100     3      -0.3810191055E-01      34   26    2        -0.1122117113E+04      0.1606179914E+04
          0                 4           2            55  100     3       0.2636865808E-01      55  100    3         0.7691317040E+03      0.7693995286E+03
          0                 5           2            55  100     3      -0.1434956496E-01      55  100    3        -0.4589088823E+03      0.4589201392E+03
          0                 6           2            55  100     3       0.6057782737E-02      55  100    3         0.2121326465E+03      0.2121330865E+03

    ------------------------------------------------
       NWT REQUIRED            6 OUTER ITERATIONS 
       AND A TOTAL OF         18 INNER ITERATIONS.
    ------------------------------------------------

 NO OUTPUT CONTROL FOR STRESS PERIOD   59   TIME STEP    8
 
 SOLVING FOR HEAD 
                                                   Max.-Head-Change                         Max.-Flux-Residual
  Residual-Control   Outer-Iter.   Inner-Iter.     Column Row Layer    Maximum-Head-Change  Column Row Layer    Maximum-Flux-Residual          L2-NORM 
          0                 1           6            92   52     1       0.2731279335E+01      75   48    1         0.1027680768E+06      0.6131837562E+06
          0                 2           4            63  110     1      -0.3077763985E+00      75   48    1        -0.1031929863E+05      0.6181598145E+05
          0                 3           2            55  100     3      -0.3340408813E-01      55  100    3        -0.8876753989E+03      0.9475162110E+03
          0                 4           2            55  100     3       0.2246601745E-01      55  100    3         0.6552688779E+03      0.6553345531E+03
          0                 5           2            55  100     3      -0.1183421576E-01      55  100    3        -0.3784517185E+03      0.3784551839E+03
          0                 6           2            55  100     3       0.4800423814E-02      55  100    3         0.1680969952E+03      0.1680972135E+03

    ------------------------------------------------
       NWT REQUIRED            6 OUTER ITERATIONS 
       AND A TOTAL OF         18 INNER ITERATIONS.
    ------------------------------------------------

 NO OUTPUT CONTROL FOR STRESS PERIOD   59   TIME STEP    9
 
 SOLVING FOR HEAD 
                                                   Max.-Head-Change                         Max.-Flux-Residual
  Residual-Control   Outer-Iter.   Inner-Iter.     Column Row Layer    Maximum-Head-Change  Column Row Layer    Maximum-Flux-Residual          L2-NORM 
          0                 1           6            92   52     1       0.2586599564E+01      75   48    1         0.9655975580E+05      0.5856392388E+06
          0                 2           4            77   46     2       0.4956690167E+00      86   52    1        -0.1070550358E+05      0.5975623187E+05
          0                 3           2            77   46     2      -0.4506312698E-01      55  100    3        -0.7923895203E+03      0.9310486364E+03
          0                 4           2            55  100     3       0.1949213972E-01      55  100    3         0.5685059266E+03      0.5688692097E+03
          0                 5           2            55  100     3      -0.9936755957E-02      55  100    3        -0.3177612424E+03      0.3177669720E+03

    ------------------------------------------------
       NWT REQUIRED            5 OUTER ITERATIONS 
       AND A TOTAL OF         16 INNER ITERATIONS.
    ------------------------------------------------

 NO OUTPUT CONTROL FOR STRESS PERIOD   59   TIME STEP   10
 
 SOLVING FOR HEAD 
                                                   Max.-Head-Change                         Max.-Flux-Residual
  Residual-Control   Outer-Iter.   Inner-Iter.     Column Row Layer    Maximum-Head-Change  Column Row Layer    Maximum-Flux-Residual          L2-NORM 
          0                 1           6            92   52     1       0.2450834004E+01      75   48    1         0.9042543016E+05      0.5621498925E+06
          0                 2           4            92   52     1      -0.2239313409E+00      83   51    1        -0.1144395165E+05      0.5876453591E+05
          0                 3           2            90   76     2      -0.7465901621E-01      90   76    2        -0.2141436585E+04      0.2340535292E+04
          0                 4           2            55  100     3       0.1859455509E-01      55  100    3         0.5206131082E+03      0.5206494447E+03
          0                 5           2            55  100     3      -0.9666577929E-02      55  100    3        -0.2967507503E+03      0.2967514388E+03

    ------------------------------------------------
       NWT REQUIRED            5 OUTER ITERATIONS 
       AND A TOTAL OF         16 INNER ITERATIONS.
    ------------------------------------------------

 NO OUTPUT CONTROL FOR STRESS PERIOD   59   TIME STEP   11
 
 SOLVING FOR HEAD 
                                                   Max.-Head-Change                         Max.-Flux-Residual
  Residual-Control   Outer-Iter.   Inner-Iter.     Column Row Layer    Maximum-Head-Change  Column Row Layer    Maximum-Flux-Residual          L2-NORM 
          0                 1           6            92   52     1       0.2324953855E+01      75   48    1         0.8446346845E+05      0.5410740943E+06
          0                 2           4            75   48     1      -0.2124453202E+00      75   48    1        -0.9611058567E+04      0.5518140682E+05
          0                 3           2            63   61     1       0.1472037275E-01      59   65    1         0.2574950191E+03      0.4645852060E+03
          0                 4           2            55  100     3       0.6314131439E-02      55  100    3         0.1768042767E+03      0.1769227517E+03

    ------------------------------------------------
       NWT REQUIRED            4 OUTER ITERATIONS 
       AND A TOTAL OF         14 INNER ITERATIONS.
    ------------------------------------------------

 OUTPUT CONTROL FOR STRESS PERIOD   59   TIME STEP   12
    SAVE BUDGET
 UBDSV1 SAVING "         STORAGE" ON UNIT  39 AT TIME STEP 12, STRESS PERIOD  59
 UBDSV2 SAVING "   CONSTANT HEAD" ON UNIT  39 AT TIME STEP 12, STRESS PERIOD  59
 UBDSV1 SAVING "FLOW RIGHT FACE " ON UNIT  39 AT TIME STEP 12, STRESS PERIOD  59
 UBDSV1 SAVING "FLOW FRONT FACE " ON UNIT  39 AT TIME STEP 12, STRESS PERIOD  59
 UBDSV1 SAVING "FLOW LOWER FACE " ON UNIT  39 AT TIME STEP 12, STRESS PERIOD  59
 UBDSV4 SAVING "           WELLS" ON UNIT  39 AT TIME STEP 12, STRESS PERIOD  59
 UBDSV3 SAVING "              ET" ON UNIT  39 AT TIME STEP 12, STRESS PERIOD  59
 UBDSV3 SAVING "        RECHARGE" ON UNIT  39 AT TIME STEP 12, STRESS PERIOD  59
1
  VOLUMETRIC BUDGET FOR ENTIRE MODEL AT END OF TIME STEP   12, STRESS PERIOD  59
  ------------------------------------------------------------------------------

     CUMULATIVE VOLUMES      L**3       RATES FOR THIS TIME STEP      L**3/T
     ------------------                 ------------------------

           IN:                                      IN:
           ---                                      ---
             STORAGE =381837049856.0000               STORAGE =    14784681.0000
       CONSTANT HEAD = 38887837696.0000         CONSTANT HEAD =     2561741.0000
               WELLS = 26412083200.0000                 WELLS =     1225642.0000
                  ET =           0.0000                    ET =           0.0000
            RECHARGE =442382778368.0000              RECHARGE =    26801958.0000

            TOTAL IN =889519734784.0000              TOTAL IN =    45374020.0000

          OUT:                                     OUT:
          ----                                     ----
             STORAGE = 85867290624.0000               STORAGE =     7362801.0000
       CONSTANT HEAD = 67215650816.0000         CONSTANT HEAD =     1773340.0000
               WELLS =714277978112.0000                 WELLS =    35036280.0000
                  ET = 22158438400.0000                    ET =     1201710.0000
            RECHARGE =           0.0000              RECHARGE =           0.0000

           TOTAL OUT =889519341568.0000             TOTAL OUT =    45374132.0000

            IN - OUT =      393216.0000              IN - OUT =        -112.0000

 PERCENT DISCREPANCY =           0.00     PERCENT DISCREPANCY =          -0.00






         TIME SUMMARY AT END OF TIME STEP   12 IN STRESS PERIOD   59
                    SECONDS     MINUTES      HOURS       DAYS        YEARS
                    -----------------------------------------------------------
   TIME STEP LENGTH 2.62800E+06  43800.      730.00      30.417     8.32763E-02
 STRESS PERIOD TIME 3.15360E+07 5.25600E+05  8760.0      365.00     0.99932    
         TOTAL TIME 1.86192E+09 3.10320E+07 5.17199E+05  21550.      59.001    
1
1
                            STRESS PERIOD NO.   60, LENGTH =   365.0000    
                            -----------------------------------------------

                              NUMBER OF TIME STEPS =    12

                               MULTIPLIER FOR DELT =     1.000

                            INITIAL TIME STEP SIZE =   30.41667    

   1685 WELLS

 REUSING SURF FROM LAST STRESS PERIOD

 REUSING EVTR FROM LAST STRESS PERIOD

 REUSING EXDP FROM LAST STRESS PERIOD



                           RECHARGE
 READING ON UNIT   16 WITH FORMAT: (15F5.0)            


     63 TIME-VARIANT SPECIFIED-HEAD CELLS
 
 SOLVING FOR HEAD 
                                                   Max.-Head-Change                         Max.-Flux-Residual
  Residual-Control   Outer-Iter.   Inner-Iter.     Column Row Layer    Maximum-Head-Change  Column Row Layer    Maximum-Flux-Residual          L2-NORM 
          0                 1           7            84   61     1      -0.2769784328E+02      79   49    1        -0.1924740960E+06      0.1134155458E+07
          0                 2           5            81   59     1      -0.1450013138E+02      81   59    1        -0.2677277324E+05      0.1152289674E+06
          0                 3           2            81   59     1       0.1057198740E+01      81   59    2        -0.2502106872E+04      0.3517072359E+04
          0                 4           2            81   59     1       0.1824958737E-01      55  100    3        -0.8165986631E+02      0.1160674292E+03
          0                 5           1            81   59     1       0.3141193966E-03      55  100    3         0.5203915201E+01      0.7848527918E+01

    ------------------------------------------------
       NWT REQUIRED            5 OUTER ITERATIONS 
       AND A TOTAL OF         17 INNER ITERATIONS.
    ------------------------------------------------

 NO OUTPUT CONTROL FOR STRESS PERIOD   60   TIME STEP    1
 
 SOLVING FOR HEAD 
                                                   Max.-Head-Change                         Max.-Flux-Residual
  Residual-Control   Outer-Iter.   Inner-Iter.     Column Row Layer    Maximum-Head-Change  Column Row Layer    Maximum-Flux-Residual          L2-NORM 
          0                 1           7            30   53     2       0.3934018007E+01      79   49    1        -0.1509674685E+06      0.8412847831E+06
          0                 2           5            78   87     1      -0.4914875275E+00      79   49    1         0.1485158269E+05      0.8446663656E+05
          0                 3           2            87   66     2      -0.3825659553E-01      55  100    3         0.4916279618E+03      0.8540545428E+03
          0                 4           2            55  100     3      -0.3506587054E-02      55  100    3        -0.9830514956E+02      0.1244126400E+03

    ------------------------------------------------
       NWT REQUIRED            4 OUTER ITERATIONS 
       AND A TOTAL OF         16 INNER ITERATIONS.
    ------------------------------------------------

 NO OUTPUT CONTROL FOR STRESS PERIOD   60   TIME STEP    2
 
 SOLVING FOR HEAD 
                                                   Max.-Head-Change                         Max.-Flux-Residual
  Residual-Control   Outer-Iter.   Inner-Iter.     Column Row Layer    Maximum-Head-Change  Column Row Layer    Maximum-Flux-Residual          L2-NORM 
          0                 1           7            87   51     1      -0.3135290538E+01      83   51    1        -0.1227222605E+06      0.7169081296E+06
          0                 2           5            83   60     1      -0.9118466656E+01      77   46    2         0.1807698344E+05      0.7882011398E+05
          0                 3           2            83   60     1       0.5971949132E+00      59   72    1         0.8450367392E+03      0.1399340344E+04
          0                 4           2            83   60     1       0.1513747471E-01      55  100    3        -0.9744476985E+02      0.1115124558E+03
          0                 5           1            83   60     1       0.3803141407E-03      55  100    3         0.1144755396E+02      0.1219634270E+02

    ------------------------------------------------
       NWT REQUIRED            5 OUTER ITERATIONS 
       AND A TOTAL OF         17 INNER ITERATIONS.
    ------------------------------------------------

 NO OUTPUT CONTROL FOR STRESS PERIOD   60   TIME STEP    3
 
 SOLVING FOR HEAD 
                                                   Max.-Head-Change                         Max.-Flux-Residual
  Residual-Control   Outer-Iter.   Inner-Iter.     Column Row Layer    Maximum-Head-Change  Column Row Layer    Maximum-Flux-Residual          L2-NORM 
          0                 1           7            88   51     1      -0.2738932212E+01      83   51    1        -0.1049960868E+06      0.6406017975E+06
          0                 2           5            70   55     1      -0.1712016545E+01      83   51    1         0.1031232138E+05      0.6540977078E+05
          0                 3           3            70   55     1       0.1460340193E+00      62   88    1        -0.8923885768E+03      0.1513818021E+04
          0                 4           2            55  100     3      -0.3064594262E-02      55  100    3        -0.8595211546E+02      0.1247124484E+03

    ------------------------------------------------
       NWT REQUIRED            4 OUTER ITERATIONS 
       AND A TOTAL OF         17 INNER ITERATIONS.
    ------------------------------------------------

 NO OUTPUT CONTROL FOR STRESS PERIOD   60   TIME STEP    4
 
 SOLVING FOR HEAD 
                                                   Max.-Head-Change                         Max.-Flux-Residual
  Residual-Control   Outer-Iter.   Inner-Iter.     Column Row Layer    Maximum-Head-Change  Column Row Layer    Maximum-Flux-Residual          L2-NORM 
          0                 1           7            88   51     1      -0.2481667517E+01      88   51    1        -0.9146768407E+05      0.5892831228E+06
          0                 2           5            65    4     2      -0.3209478788E+01      88   51    1         0.8982218646E+04      0.5959593837E+05
          0                 3           2            65    4     2       0.1030525880E+00      62   88    1         0.5123152581E+03      0.7233177289E+03
          0                 4           2            65    4     2       0.6044066480E-02      55  100    3        -0.7030437164E+02      0.7711421467E+02

    ------------------------------------------------
       NWT REQUIRED            4 OUTER ITERATIONS 
       AND A TOTAL OF         16 INNER ITERATIONS.
    ------------------------------------------------

 NO OUTPUT CONTROL FOR STRESS PERIOD   60   TIME STEP    5
 
 SOLVING FOR HEAD 
                                                   Max.-Head-Change                         Max.-Flux-Residual
  Residual-Control   Outer-Iter.   Inner-Iter.     Column Row Layer    Maximum-Head-Change  Column Row Layer    Maximum-Flux-Residual          L2-NORM 
          0                 1           7            65    4     2      -0.2481547830E+01      88   51    1        -0.8286331787E+05      0.5527534132E+06
          0                 2           5            78   69     1      -0.1188980139E+01      60   66    2         0.9589100500E+04      0.5617070233E+05
          0                 3           2            78   69     1       0.1002257894E+00      78   69    1         0.4288359891E+03      0.6535274613E+03
          0                 4           2            55  100     3      -0.1949367561E-02      55  100    3        -0.5469169256E+02      0.6020158406E+02

    ------------------------------------------------
       NWT REQUIRED            4 OUTER ITERATIONS 
       AND A TOTAL OF         16 INNER ITERATIONS.
    ------------------------------------------------

 NO OUTPUT CONTROL FOR STRESS PERIOD   60   TIME STEP    6
 
 SOLVING FOR HEAD 
                                                   Max.-Head-Change                         Max.-Flux-Residual
  Residual-Control   Outer-Iter.   Inner-Iter.     Column Row Layer    Maximum-Head-Change  Column Row Layer    Maximum-Flux-Residual          L2-NORM 
          0                 1           7            77   68     1      -0.3668343576E+01      88   51    1        -0.7539215856E+05      0.5266391169E+06
          0                 2           5            92   77     2      -0.2432042349E+02      88   51    1         0.1479361268E+05      0.5533822261E+05
          0                 3           2            92   77     2       0.2007086165E+00      51   38    1        -0.1414881551E+04      0.1710515396E+04
          0                 4           2            92   77     2       0.1638420807E-01      51   38    1        -0.1274668774E+03      0.1352300894E+03
          0                 5           2            92   77     2       0.1334124843E-02      51   38    1        -0.1147958231E+02      0.1330008133E+02

    ------------------------------------------------
       NWT REQUIRED            5 OUTER ITERATIONS 
       AND A TOTAL OF         18 INNER ITERATIONS.
    ------------------------------------------------

 NO OUTPUT CONTROL FOR STRESS PERIOD   60   TIME STEP    7
 
 SOLVING FOR HEAD 
                                                   Max.-Head-Change                         Max.-Flux-Residual
  Residual-Control   Outer-Iter.   Inner-Iter.     Column Row Layer    Maximum-Head-Change  Column Row Layer    Maximum-Flux-Residual          L2-NORM 
          0                 1           6            92   77     2      -0.6116448460E+02      92   52    1        -0.7013566740E+05      0.5057011702E+06
          0                 2           5            92   77     2       0.8522832129E+01      71   57    1        -0.7647782670E+04      0.5183118402E+05
          0                 3           2            92   77     2       0.3856021340E+00      58   79    2        -0.2840740682E+04      0.2984866077E+04
          0                 4           2            92   77     2       0.1707257613E-01      58   79    2        -0.2560305906E+03      0.2584242916E+03
          0                 5           1            58   79     1      -0.7932275725E-03      58   79    2        -0.2302345735E+02      0.2356714386E+02

    ------------------------------------------------
       NWT REQUIRED            5 OUTER ITERATIONS 
       AND A TOTAL OF         16 INNER ITERATIONS.
    ------------------------------------------------

 NO OUTPUT CONTROL FOR STRESS PERIOD   60   TIME STEP    8
 
 SOLVING FOR HEAD 
                                                   Max.-Head-Change                         Max.-Flux-Residual
  Residual-Control   Outer-Iter.   Inner-Iter.     Column Row Layer    Maximum-Head-Change  Column Row Layer    Maximum-Flux-Residual          L2-NORM 
          0                 1           6            92   52     1      -0.1855619333E+01      92   52    1        -0.6582859051E+05      0.4898030422E+06
          0                 2           5            58   79     2      -0.3567691563E+01      59   59    2         0.1415566855E+05      0.5338346208E+05
          0                 3           2            58   79     2       0.2020534590E+00      55   41    1         0.1054886746E+04      0.1219936665E+04
          0                 4           2            58   79     1       0.6870936667E-02      55  100    3        -0.2152482590E+02      0.2478227005E+02

    ------------------------------------------------
       NWT REQUIRED            4 OUTER ITERATIONS 
       AND A TOTAL OF         15 INNER ITERATIONS.
    ------------------------------------------------

 NO OUTPUT CONTROL FOR STRESS PERIOD   60   TIME STEP    9
 
 SOLVING FOR HEAD 
                                                   Max.-Head-Change                         Max.-Flux-Residual
  Residual-Control   Outer-Iter.   Inner-Iter.     Column Row Layer    Maximum-Head-Change  Column Row Layer    Maximum-Flux-Residual          L2-NORM 
          0                 1           7            92   52     1      -0.1613157741E+01      92   52    1        -0.6150893901E+05      0.4767283648E+06
          0                 2           5            81   45     1       0.2446575561E+00      60   55    2         0.9784519133E+04      0.5010804789E+05
          0                 3           2            64   53     1       0.1127981166E-01      64   53    1         0.8941388756E+02      0.1457718643E+03
          0                 4           1            55  100     3      -0.5419439796E-03      55  100    3        -0.1523568031E+02      0.1648852196E+02

    ------------------------------------------------
       NWT REQUIRED            4 OUTER ITERATIONS 
       AND A TOTAL OF         15 INNER ITERATIONS.
    ------------------------------------------------

 NO OUTPUT CONTROL FOR STRESS PERIOD   60   TIME STEP   10
 
 SOLVING FOR HEAD 
                                                   Max.-Head-Change                         Max.-Flux-Residual
  Residual-Control   Outer-Iter.   Inner-Iter.     Column Row Layer    Maximum-Head-Change  Column Row Layer    Maximum-Flux-Residual          L2-NORM 
          0                 1           7            89   51     1      -0.1444193291E+01      92   52    1        -0.5401149313E+05      0.4654848077E+06
          0                 2           5            62   63     1      -0.2505365015E+00      60   58    2         0.1102659789E+05      0.4901417367E+05
          0                 3           2            62   63     1       0.2246587171E-01      62   63    1         0.4943388273E+03      0.6093871082E+03
          0                 4           1            55  100     3      -0.3780511762E-03      18   14    2         0.2947946896E+02      0.3370925692E+02

    ------------------------------------------------
       NWT REQUIRED            4 OUTER ITERATIONS 
       AND A TOTAL OF         15 INNER ITERATIONS.
    ------------------------------------------------

 NO OUTPUT CONTROL FOR STRESS PERIOD   60   TIME STEP   11

 INTERPOLATION FOR HEAD OBS# 3703, ID 1479-60-363  CHANGED BECAUSE AT LEAST ONE
 NEIGHBORING CELL REQUIRED FOR INTERPOLATION IS DRY OR INACTIVE (OBS2BAS7SE)
 
 SOLVING FOR HEAD 
                                                   Max.-Head-Change                         Max.-Flux-Residual
  Residual-Control   Outer-Iter.   Inner-Iter.     Column Row Layer    Maximum-Head-Change  Column Row Layer    Maximum-Flux-Residual          L2-NORM 
          0                 1           7            89   51     1      -0.1355886280E+01      89   51    1        -0.4818959755E+05      0.4561200115E+06
          0                 2           5            89   51     1       0.1602944652E+00      89   51    1         0.6876204423E+04      0.4596073803E+05
          0                 3           2            72   60     2       0.9413950923E-02      18   14    2        -0.3174181996E+03      0.3802473467E+03

    ------------------------------------------------
       NWT REQUIRED            3 OUTER ITERATIONS 
       AND A TOTAL OF         14 INNER ITERATIONS.
    ------------------------------------------------

 OUTPUT CONTROL FOR STRESS PERIOD   60   TIME STEP   12
    SAVE BUDGET
 UBDSV1 SAVING "         STORAGE" ON UNIT  39 AT TIME STEP 12, STRESS PERIOD  60
 UBDSV2 SAVING "   CONSTANT HEAD" ON UNIT  39 AT TIME STEP 12, STRESS PERIOD  60
 UBDSV1 SAVING "FLOW RIGHT FACE " ON UNIT  39 AT TIME STEP 12, STRESS PERIOD  60
 UBDSV1 SAVING "FLOW FRONT FACE " ON UNIT  39 AT TIME STEP 12, STRESS PERIOD  60
 UBDSV1 SAVING "FLOW LOWER FACE " ON UNIT  39 AT TIME STEP 12, STRESS PERIOD  60
 UBDSV4 SAVING "           WELLS" ON UNIT  39 AT TIME STEP 12, STRESS PERIOD  60
 UBDSV3 SAVING "              ET" ON UNIT  39 AT TIME STEP 12, STRESS PERIOD  60
 UBDSV3 SAVING "        RECHARGE" ON UNIT  39 AT TIME STEP 12, STRESS PERIOD  60

 INTERPOLATION FOR HEAD OBS# 1658, ID 2303-61-4    CHANGED BECAUSE AT LEAST ONE
 NEIGHBORING CELL REQUIRED FOR INTERPOLATION IS DRY OR INACTIVE (OBS2BAS7SE)

 INTERPOLATION FOR HEAD OBS# 5434, ID 846-61-25    CHANGED BECAUSE AT LEAST ONE
 NEIGHBORING CELL REQUIRED FOR INTERPOLATION IS DRY OR INACTIVE (OBS2BAS7SE)
1
  VOLUMETRIC BUDGET FOR ENTIRE MODEL AT END OF TIME STEP   12, STRESS PERIOD  60
  ------------------------------------------------------------------------------

     CUMULATIVE VOLUMES      L**3       RATES FOR THIS TIME STEP      L**3/T
     ------------------                 ------------------------

           IN:                                      IN:
           ---                                      ---
             STORAGE =389019336704.0000               STORAGE =    18767824.0000
       CONSTANT HEAD = 39839825920.0000         CONSTANT HEAD =     2628548.2500
               WELLS = 26859440128.0000                 WELLS =     1225642.0000
                  ET =           0.0000                    ET =           0.0000
            RECHARGE =449675362304.0000              RECHARGE =    19979862.0000

            TOTAL IN =905393995776.0000              TOTAL IN =    42601876.0000

          OUT:                                     OUT:
          ----                                     ----
             STORAGE = 87469637632.0000               STORAGE =     3729316.7500
       CONSTANT HEAD = 67844562944.0000         CONSTANT HEAD =     1677523.7500
               WELLS =727620780032.0000                 WELLS =    36557964.0000
                  ET = 22458488832.0000                    ET =      637093.7500
            RECHARGE =           0.0000              RECHARGE =           0.0000

           TOTAL OUT =905393471488.0000             TOTAL OUT =    42601896.0000

            IN - OUT =      524288.0000              IN - OUT =         -20.0000

 PERCENT DISCREPANCY =           0.00     PERCENT DISCREPANCY =          -0.00






         TIME SUMMARY AT END OF TIME STEP   12 IN STRESS PERIOD   60
                    SECONDS     MINUTES      HOURS       DAYS        YEARS
                    -----------------------------------------------------------
   TIME STEP LENGTH 2.62800E+06  43800.      730.00      30.417     8.32763E-02
 STRESS PERIOD TIME 3.15360E+07 5.25600E+05  8760.0      365.00     0.99932    
         TOTAL TIME 1.89345E+09 3.15575E+07 5.25959E+05  21915.      60.000    
1
1
                            STRESS PERIOD NO.   61, LENGTH =   366.0000    
                            -----------------------------------------------

                              NUMBER OF TIME STEPS =    12

                               MULTIPLIER FOR DELT =     1.000

                            INITIAL TIME STEP SIZE =   30.50000    

   1685 WELLS

 REUSING SURF FROM LAST STRESS PERIOD

 REUSING EVTR FROM LAST STRESS PERIOD

 REUSING EXDP FROM LAST STRESS PERIOD



                           RECHARGE
 READING ON UNIT   16 WITH FORMAT: (15F5.0)            


     63 TIME-VARIANT SPECIFIED-HEAD CELLS
 
 SOLVING FOR HEAD 
                                                   Max.-Head-Change                         Max.-Flux-Residual
  Residual-Control   Outer-Iter.   Inner-Iter.     Column Row Layer    Maximum-Head-Change  Column Row Layer    Maximum-Flux-Residual          L2-NORM 
          0                 1           7            65    2     2       0.9179355808E+02      67   51    2        -0.2061689946E+06      0.1136904876E+07
          0                 2           5            65    7     2      -0.5243519520E+02      65    7    2        -0.1444695476E+07      0.2112580851E+07
          0                 3           3            92   77     2      -0.3306561673E+02      92   77    2        -0.9996265029E+06      0.1002881518E+07
          0                 4           3            91   77     2       0.9836727326E+01      65    3    2        -0.2342644520E+06      0.3746178351E+06
          0                 5           2            91   77     2       0.1496124793E+01      65    3    2        -0.4070177966E+05      0.6497884257E+05
          0                 6           2            65    3     2      -0.2237375986E+00      65    3    2        -0.6978517210E+04      0.1113373281E+05
          0                 7           2            66    5     2       0.4155105324E-01      65    3    2        -0.1192665926E+04      0.1910449131E+04
          0                 8           2            67    4     2       0.1248735701E-01      65    3    2        -0.2036144368E+03      0.3681329914E+03
          0                 9           2            67    4     2       0.3751776425E-02      27   82    3        -0.1729122528E+03      0.1816051254E+03

    ------------------------------------------------
       NWT REQUIRED            9 OUTER ITERATIONS 
       AND A TOTAL OF         28 INNER ITERATIONS.
    ------------------------------------------------

 NO OUTPUT CONTROL FOR STRESS PERIOD   61   TIME STEP    1

 INTERPOLATION FOR HEAD OBS#  639, ID 3014-61-59   CHANGED BECAUSE AT LEAST ONE
 NEIGHBORING CELL REQUIRED FOR INTERPOLATION IS DRY OR INACTIVE (OBS2BAS7SE)

 INTERPOLATION FOR HEAD OBS# 1404, ID 2840-61-56   CHANGED BECAUSE AT LEAST ONE
 NEIGHBORING CELL REQUIRED FOR INTERPOLATION IS DRY OR INACTIVE (OBS2BAS7SE)

 INTERPOLATION FOR HEAD OBS# 1743, ID 2618-61-53   CHANGED BECAUSE AT LEAST ONE
 NEIGHBORING CELL REQUIRED FOR INTERPOLATION IS DRY OR INACTIVE (OBS2BAS7SE)

 INTERPOLATION FOR HEAD OBS# 1855, ID 2604-61-55   CHANGED BECAUSE AT LEAST ONE
 NEIGHBORING CELL REQUIRED FOR INTERPOLATION IS DRY OR INACTIVE (OBS2BAS7SE)

 INTERPOLATION FOR HEAD OBS# 1869, ID 2606-61-55   CHANGED BECAUSE AT LEAST ONE
 NEIGHBORING CELL REQUIRED FOR INTERPOLATION IS DRY OR INACTIVE (OBS2BAS7SE)

 INTERPOLATION FOR HEAD OBS# 2184, ID 2355-61-40   CHANGED BECAUSE AT LEAST ONE
 NEIGHBORING CELL REQUIRED FOR INTERPOLATION IS DRY OR INACTIVE (OBS2BAS7SE)

 INTERPOLATION FOR HEAD OBS# 3201, ID 2443-61-54   CHANGED BECAUSE AT LEAST ONE
 NEIGHBORING CELL REQUIRED FOR INTERPOLATION IS DRY OR INACTIVE (OBS2BAS7SE)

 INTERPOLATION FOR HEAD OBS# 3227, ID 2189-61-55   CHANGED BECAUSE AT LEAST ONE
 NEIGHBORING CELL REQUIRED FOR INTERPOLATION IS DRY OR INACTIVE (OBS2BAS7SE)

 INTERPOLATION FOR HEAD OBS# 5405, ID 1705-61-60   CHANGED BECAUSE AT LEAST ONE
 NEIGHBORING CELL REQUIRED FOR INTERPOLATION IS DRY OR INACTIVE (OBS2BAS7SE)

 INTERPOLATION FOR HEAD OBS# 5409, ID 1530-61-60   CHANGED BECAUSE AT LEAST ONE
 NEIGHBORING CELL REQUIRED FOR INTERPOLATION IS DRY OR INACTIVE (OBS2BAS7SE)

 INTERPOLATION FOR HEAD OBS# 6248, ID 1164-61-60   CHANGED BECAUSE AT LEAST ONE
 NEIGHBORING CELL REQUIRED FOR INTERPOLATION IS DRY OR INACTIVE (OBS2BAS7SE)

 INTERPOLATION FOR HEAD OBS# 7382, ID 451-61-52    CHANGED BECAUSE AT LEAST ONE
 NEIGHBORING CELL REQUIRED FOR INTERPOLATION IS DRY OR INACTIVE (OBS2BAS7SE)

 INTERPOLATION FOR HEAD OBS# 7535, ID 269-61-61    CHANGED BECAUSE AT LEAST ONE
 NEIGHBORING CELL REQUIRED FOR INTERPOLATION IS DRY OR INACTIVE (OBS2BAS7SE)
 
 SOLVING FOR HEAD 
                                                   Max.-Head-Change                         Max.-Flux-Residual
  Residual-Control   Outer-Iter.   Inner-Iter.     Column Row Layer    Maximum-Head-Change  Column Row Layer    Maximum-Flux-Residual          L2-NORM 
          0                 1           6            70   63     3      -0.6773396328E+01      82   72    2        -0.1489231697E+06      0.7904427046E+06
          0                 2           5            36   70     2      -0.4899512484E+01      70   19    1        -0.4298484147E+05      0.9696013668E+05
          0                 3           3            37   70     2       0.7023138794E+00      24   22    2        -0.1364465435E+04      0.2695724899E+04
          0                 4           2            55  100     3       0.2155516044E-01      55  100    3         0.6038037039E+03      0.6829040321E+03
          0                 5           2            55  100     3      -0.6875007684E-02      27   82    3        -0.3080891248E+03      0.3735734896E+03

    ------------------------------------------------
       NWT REQUIRED            5 OUTER ITERATIONS 
       AND A TOTAL OF         18 INNER ITERATIONS.
    ------------------------------------------------

 NO OUTPUT CONTROL FOR STRESS PERIOD   61   TIME STEP    2

 INTERPOLATION FOR HEAD OBS#  198, ID 3228-61-73   CHANGED BECAUSE AT LEAST ONE
 NEIGHBORING CELL REQUIRED FOR INTERPOLATION IS DRY OR INACTIVE (OBS2BAS7SE)
 
 SOLVING FOR HEAD 
                                                   Max.-Head-Change                         Max.-Flux-Residual
  Residual-Control   Outer-Iter.   Inner-Iter.     Column Row Layer    Maximum-Head-Change  Column Row Layer    Maximum-Flux-Residual          L2-NORM 
          0                 1           6            82   72     2      -0.3497431271E+01      82   72    2        -0.1175459571E+06      0.6626647450E+06
          0                 2           5            70   17     1      -0.5266670471E+00      33   25    1        -0.2963986211E+05      0.8318137118E+05
          0                 3           2            55  100     3      -0.2655223817E-01      34   25    2        -0.2204597223E+04      0.2637841599E+04
          0                 4           2            55  100     3       0.1127618828E-01      27   82    3        -0.4402134945E+03      0.5425513622E+03
          0                 5           2            55  100     3      -0.3415285590E-02      27   82    3        -0.4399853611E+03      0.4523283480E+03

    ------------------------------------------------
       NWT REQUIRED            5 OUTER ITERATIONS 
       AND A TOTAL OF         17 INNER ITERATIONS.
    ------------------------------------------------

 NO OUTPUT CONTROL FOR STRESS PERIOD   61   TIME STEP    3
 
 SOLVING FOR HEAD 
                                                   Max.-Head-Change                         Max.-Flux-Residual
  Residual-Control   Outer-Iter.   Inner-Iter.     Column Row Layer    Maximum-Head-Change  Column Row Layer    Maximum-Flux-Residual          L2-NORM 
          0                 1           6            71   16     1       0.3293019356E+01      82   72    2        -0.9462398130E+05      0.5872020194E+06
          0                 2           5            67   51     1      -0.4069718591E+01      69   21    1        -0.3184079678E+05      0.7228247387E+05
          0                 3           3            67   51     1       0.3470250777E+00      67   51    1         0.2279550223E+04      0.2623340926E+04
          0                 4           2            55  100     3       0.6253057368E-02      27   82    3        -0.5697583865E+03      0.5963136359E+03

    ------------------------------------------------
       NWT REQUIRED            4 OUTER ITERATIONS 
       AND A TOTAL OF         16 INNER ITERATIONS.
    ------------------------------------------------

 NO OUTPUT CONTROL FOR STRESS PERIOD   61   TIME STEP    4
 
 SOLVING FOR HEAD 
                                                   Max.-Head-Change                         Max.-Flux-Residual
  Residual-Control   Outer-Iter.   Inner-Iter.     Column Row Layer    Maximum-Head-Change  Column Row Layer    Maximum-Flux-Residual          L2-NORM 
          0                 1           6            71   16     1       0.3111334185E+01      71   16    1         0.8204863256E+05      0.5367826071E+06
          0                 2           5            71   16     1      -0.2845891766E+00      33   25    2         0.1945262247E+05      0.5869318812E+05
          0                 3           2            33   25     2      -0.1954712001E-01      33   25    2        -0.1887513151E+04      0.2155888786E+04
          0                 4           2            55  100     3       0.3776891323E-02      27   82    3        -0.6969480251E+03      0.7049737892E+03

    ------------------------------------------------
       NWT REQUIRED            4 OUTER ITERATIONS 
       AND A TOTAL OF         15 INNER ITERATIONS.
    ------------------------------------------------

 NO OUTPUT CONTROL FOR STRESS PERIOD   61   TIME STEP    5
 
 SOLVING FOR HEAD 
                                                   Max.-Head-Change                         Max.-Flux-Residual
  Residual-Control   Outer-Iter.   Inner-Iter.     Column Row Layer    Maximum-Head-Change  Column Row Layer    Maximum-Flux-Residual          L2-NORM 
          0                 1           6            35   70     2      -0.5438994853E+01      71   16    1         0.7752821529E+05      0.5014278374E+06
          0                 2           5            80   45     1      -0.1962884752E+01      32   27    1        -0.2356973295E+05      0.5762821424E+05
          0                 3           2            80   45     1       0.1441673982E+00      27   82    3        -0.8225618957E+03      0.9711758715E+03
          0                 4           2            80   45     1       0.2519061584E-02      27   82    3        -0.8221014636E+03      0.8246611196E+03

    ------------------------------------------------
       NWT REQUIRED            4 OUTER ITERATIONS 
       AND A TOTAL OF         15 INNER ITERATIONS.
    ------------------------------------------------

 NO OUTPUT CONTROL FOR STRESS PERIOD   61   TIME STEP    6
 
 SOLVING FOR HEAD 
                                                   Max.-Head-Change                         Max.-Flux-Residual
  Residual-Control   Outer-Iter.   Inner-Iter.     Column Row Layer    Maximum-Head-Change  Column Row Layer    Maximum-Flux-Residual          L2-NORM 
          0                 1           6            72   62     1      -0.3666980286E+01      71   16    1         0.7327441092E+05      0.4743036227E+06
          0                 2           5            72   62     1       0.2738432902E+00      66   19    1        -0.8550411848E+04      0.4918019353E+05
          0                 3           2            27   82     3      -0.4643512523E-01      27   82    3        -0.9459792558E+03      0.1060877430E+04
          0                 4           2            27   82     3       0.4219251291E-02      27   82    3         0.9920858283E+02      0.1080766757E+03

    ------------------------------------------------
       NWT REQUIRED            4 OUTER ITERATIONS 
       AND A TOTAL OF         15 INNER ITERATIONS.
    ------------------------------------------------

 NO OUTPUT CONTROL FOR STRESS PERIOD   61   TIME STEP    7
 
 SOLVING FOR HEAD 
                                                   Max.-Head-Change                         Max.-Flux-Residual
  Residual-Control   Outer-Iter.   Inner-Iter.     Column Row Layer    Maximum-Head-Change  Column Row Layer    Maximum-Flux-Residual          L2-NORM 
          0                 1           6            71   16     1       0.2620873486E+01      71   16    1         0.6923889317E+05      0.4532283091E+06
          0                 2           4            58   81     2      -0.1878777625E+01      30   26    1        -0.1434445472E+05      0.4902459122E+05
          0                 3           3            58   81     2       0.1278449480E+00      58   81    2         0.3609954761E+03      0.5046740955E+03
          0                 4           2            58   81     1       0.2986093504E-02      86   65    2        -0.2079997557E+03      0.2094345910E+03

    ------------------------------------------------
       NWT REQUIRED            4 OUTER ITERATIONS 
       AND A TOTAL OF         15 INNER ITERATIONS.
    ------------------------------------------------

 NO OUTPUT CONTROL FOR STRESS PERIOD   61   TIME STEP    8
 
 SOLVING FOR HEAD 
                                                   Max.-Head-Change                         Max.-Flux-Residual
  Residual-Control   Outer-Iter.   Inner-Iter.     Column Row Layer    Maximum-Head-Change  Column Row Layer    Maximum-Flux-Residual          L2-NORM 
          0                 1           6            71   16     1       0.2472901848E+01      71   16    1         0.6530860333E+05      0.4361052219E+06
          0                 2           4            73   15     3       0.2781304381E+01      73   15    3         0.2054426339E+05      0.4947970151E+05
          0                 3           2            73   15     3      -0.2522165090E+00      86   65    2         0.2117917208E+04      0.3108155118E+04
          0                 4           1            72   60     1       0.5626898191E-03      86   65    2         0.2117284437E+04      0.2117336994E+04
          0                 5           1            55  100     3      -0.1406003103E-03      86   65    2         0.2116905650E+04      0.2116911213E+04
          0                 6           3            86   65     2       0.8107657490E+00      86   65    2         0.2116676572E+04      0.2116677820E+04
          0                 7           2            86   65     2      -0.8053612000E-01      86   65    2        -0.2552375775E+03      0.3068305962E+03
          0                 8           2            87   65     2       0.1091605328E-02      86   66    2         0.4689789096E+01      0.6932344045E+01

    ------------------------------------------------
       NWT REQUIRED            8 OUTER ITERATIONS 
       AND A TOTAL OF         21 INNER ITERATIONS.
    ------------------------------------------------

 NO OUTPUT CONTROL FOR STRESS PERIOD   61   TIME STEP    9
 
 SOLVING FOR HEAD 
                                                   Max.-Head-Change                         Max.-Flux-Residual
  Residual-Control   Outer-Iter.   Inner-Iter.     Column Row Layer    Maximum-Head-Change  Column Row Layer    Maximum-Flux-Residual          L2-NORM 
          0                 1           6            69   63     1      -0.3743183143E+01      71   16    1         0.6163439468E+05      0.4230035934E+06
          0                 2           4            70   19     2       0.6657181251E+00      70   19    2         0.8728104306E+04      0.4482786837E+05
          0                 3           2            70   19     2      -0.6083502712E-01      77   70    1        -0.1132839124E+04      0.1786485536E+04
          0                 4           2            77   70     1      -0.2435568482E-02      77   70    1        -0.1019967521E+03      0.1023923761E+03

    ------------------------------------------------
       NWT REQUIRED            4 OUTER ITERATIONS 
       AND A TOTAL OF         14 INNER ITERATIONS.
    ------------------------------------------------

 NO OUTPUT CONTROL FOR STRESS PERIOD   61   TIME STEP   10
 
 SOLVING FOR HEAD 
                                                   Max.-Head-Change                         Max.-Flux-Residual
  Residual-Control   Outer-Iter.   Inner-Iter.     Column Row Layer    Maximum-Head-Change  Column Row Layer    Maximum-Flux-Residual          L2-NORM 
          0                 1           6            70   19     2       0.4560276137E+01      71   16    1         0.5820382889E+05      0.4122268509E+06
          0                 2           4            86   84     2      -0.1251152155E+01      62   85    1        -0.1986510874E+05      0.4740083543E+05
          0                 3           2            68   10     2       0.5283999424E-01      77   70    1         0.5548554883E+03      0.9716510860E+03
          0                 4           2            68   10     2       0.2873611926E-02      62   64    1        -0.4179001780E+02      0.5538518828E+02

    ------------------------------------------------
       NWT REQUIRED            4 OUTER ITERATIONS 
       AND A TOTAL OF         14 INNER ITERATIONS.
    ------------------------------------------------

 NO OUTPUT CONTROL FOR STRESS PERIOD   61   TIME STEP   11
 
 SOLVING FOR HEAD 
                                                   Max.-Head-Change                         Max.-Flux-Residual
  Residual-Control   Outer-Iter.   Inner-Iter.     Column Row Layer    Maximum-Head-Change  Column Row Layer    Maximum-Flux-Residual          L2-NORM 
          0                 1           6            86   84     2      -0.3577703969E+01      70   19    1         0.6792369308E+05      0.4040850525E+06
          0                 2           4            72   15     2       0.2146229198E+01      72   15    2         0.1883059965E+05      0.4991092334E+05
          0                 3           3            34   69     2      -0.3731580345E+00      34   69    2        -0.1181963116E+05      0.1204997752E+05
          0                 4           2            34   69     2      -0.3365952144E-01      34   69    2        -0.1065660235E+04      0.1065770383E+04
          0                 5           2            34   69     2      -0.3026923723E-02      34   69    2        -0.9581922960E+02      0.9582802826E+02

    ------------------------------------------------
       NWT REQUIRED            5 OUTER ITERATIONS 
       AND A TOTAL OF         17 INNER ITERATIONS.
    ------------------------------------------------

 OUTPUT CONTROL FOR STRESS PERIOD   61   TIME STEP   12
    SAVE BUDGET
    SAVE HEAD FOR LAYERS:   1  2  3
 UBDSV1 SAVING "         STORAGE" ON UNIT  39 AT TIME STEP 12, STRESS PERIOD  61
 UBDSV2 SAVING "   CONSTANT HEAD" ON UNIT  39 AT TIME STEP 12, STRESS PERIOD  61
 UBDSV1 SAVING "FLOW RIGHT FACE " ON UNIT  39 AT TIME STEP 12, STRESS PERIOD  61
 UBDSV1 SAVING "FLOW FRONT FACE " ON UNIT  39 AT TIME STEP 12, STRESS PERIOD  61
 UBDSV1 SAVING "FLOW LOWER FACE " ON UNIT  39 AT TIME STEP 12, STRESS PERIOD  61
 UBDSV4 SAVING "           WELLS" ON UNIT  39 AT TIME STEP 12, STRESS PERIOD  61
 UBDSV3 SAVING "              ET" ON UNIT  39 AT TIME STEP 12, STRESS PERIOD  61
 UBDSV3 SAVING "        RECHARGE" ON UNIT  39 AT TIME STEP 12, STRESS PERIOD  61

 HEAD WILL BE SAVED ON UNIT   31 AT END OF TIME STEP   12, STRESS PERIOD   61
1
  VOLUMETRIC BUDGET FOR ENTIRE MODEL AT END OF TIME STEP   12, STRESS PERIOD  61
  ------------------------------------------------------------------------------

     CUMULATIVE VOLUMES      L**3       RATES FOR THIS TIME STEP      L**3/T
     ------------------                 ------------------------

           IN:                                      IN:
           ---                                      ---
             STORAGE =393749200896.0000               STORAGE =    11393109.0000
       CONSTANT HEAD = 40739495936.0000         CONSTANT HEAD =     2397187.0000
               WELLS = 27308025856.0000                 WELLS =     1225642.0000
                  ET =           0.0000                    ET =           0.0000
            RECHARGE =461805682688.0000              RECHARGE =    33142994.0000

            TOTAL IN =923602386944.0000              TOTAL IN =    48158932.0000

          OUT:                                     OUT:
          ----                                     ----
             STORAGE = 90993729536.0000               STORAGE =     8057714.0000
       CONSTANT HEAD = 68412616704.0000         CONSTANT HEAD =     1468721.6250
               WELLS =741456019456.0000                 WELLS =    37798292.0000
                  ET = 22739699712.0000                    ET =      834219.2500
            RECHARGE =           0.0000              RECHARGE =           0.0000

           TOTAL OUT =923602059264.0000             TOTAL OUT =    48158944.0000

            IN - OUT =      327680.0000              IN - OUT =         -12.0000

 PERCENT DISCREPANCY =           0.00     PERCENT DISCREPANCY =          -0.00






         TIME SUMMARY AT END OF TIME STEP   12 IN STRESS PERIOD   61
                    SECONDS     MINUTES      HOURS       DAYS        YEARS
                    -----------------------------------------------------------
   TIME STEP LENGTH 2.63520E+06  43920.      732.00      30.500     8.35044E-02
 STRESS PERIOD TIME 3.16224E+07 5.27040E+05  8784.0      366.00      1.0021    
         TOTAL TIME 1.92507E+09 3.20846E+07 5.34743E+05  22281.      61.002    
1
1
                            STRESS PERIOD NO.   62, LENGTH =   365.0000    
                            -----------------------------------------------

                              NUMBER OF TIME STEPS =    12

                               MULTIPLIER FOR DELT =     1.000

                            INITIAL TIME STEP SIZE =   30.41667    

   1669 WELLS

 REUSING SURF FROM LAST STRESS PERIOD

 REUSING EVTR FROM LAST STRESS PERIOD

 REUSING EXDP FROM LAST STRESS PERIOD



                           RECHARGE
 READING ON UNIT   16 WITH FORMAT: (15F5.0)            


     63 TIME-VARIANT SPECIFIED-HEAD CELLS
 
 SOLVING FOR HEAD 
                                                   Max.-Head-Change                         Max.-Flux-Residual
  Residual-Control   Outer-Iter.   Inner-Iter.     Column Row Layer    Maximum-Head-Change  Column Row Layer    Maximum-Flux-Residual          L2-NORM 
          0                 1           7            65    2     2      -0.9121255848E+02      30   52    2        -0.4017356894E+06      0.1502544827E+07
          0                 2           6            34   69     2      -0.6105511117E+01      72   54    1        -0.5443659072E+05      0.1848334342E+06
          0                 3           2            34   69     2       0.3987923638E+00      66   25    1         0.3767610355E+04      0.4596956199E+04
          0                 4           2            55  100     3       0.1081688344E-01      55  100    3         0.3040379644E+03      0.3049428626E+03
          0                 5           2            55  100     3      -0.3687416449E-02      55  100    3        -0.1136416448E+03      0.1136543625E+03

    ------------------------------------------------
       NWT REQUIRED            5 OUTER ITERATIONS 
       AND A TOTAL OF         19 INNER ITERATIONS.
    ------------------------------------------------

 NO OUTPUT CONTROL FOR STRESS PERIOD   62   TIME STEP    1
 
 SOLVING FOR HEAD 
                                                   Max.-Head-Change                         Max.-Flux-Residual
  Residual-Control   Outer-Iter.   Inner-Iter.     Column Row Layer    Maximum-Head-Change  Column Row Layer    Maximum-Flux-Residual          L2-NORM 
          0                 1           7            59   85     3       0.8610431345E+01      30   52    2        -0.2301551442E+06      0.1033033537E+07
          0                 2           5            59   84     2      -0.2697998083E+01      59   84    2        -0.7336143495E+05      0.1296362460E+06
          0                 3           3            66   19     1       0.9813657779E-01      60   55    1        -0.6009162230E+04      0.6292908760E+04
          0                 4           2            60   55     1      -0.6179420940E-02      60   55    1        -0.5417795475E+03      0.5672042614E+03

    ------------------------------------------------
       NWT REQUIRED            4 OUTER ITERATIONS 
       AND A TOTAL OF         17 INNER ITERATIONS.
    ------------------------------------------------

 NO OUTPUT CONTROL FOR STRESS PERIOD   62   TIME STEP    2
 
 SOLVING FOR HEAD 
                                                   Max.-Head-Change                         Max.-Flux-Residual
  Residual-Control   Outer-Iter.   Inner-Iter.     Column Row Layer    Maximum-Head-Change  Column Row Layer    Maximum-Flux-Residual          L2-NORM 
          0                 1           7            59   84     3       0.6598572987E+01      30   52    2        -0.1540570444E+06      0.8579305000E+06
          0                 2           5            92   77     2      -0.1238053520E+02      33   24    1        -0.3012143896E+05      0.9702246347E+05
          0                 3           3            65    6     2       0.3862477758E+00      69   21    1         0.1607578097E+04      0.2330957884E+04
          0                 4           2            65    6     2       0.1577776543E-01      55  100    3         0.1028146287E+03      0.1046220286E+03
          0                 5           2            55  100     3      -0.1199352760E-02      55  100    3        -0.3696444422E+02      0.3699635195E+02

    ------------------------------------------------
       NWT REQUIRED            5 OUTER ITERATIONS 
       AND A TOTAL OF         19 INNER ITERATIONS.
    ------------------------------------------------

 NO OUTPUT CONTROL FOR STRESS PERIOD   62   TIME STEP    3
 
 SOLVING FOR HEAD 
                                                   Max.-Head-Change                         Max.-Flux-Residual
  Residual-Control   Outer-Iter.   Inner-Iter.     Column Row Layer    Maximum-Head-Change  Column Row Layer    Maximum-Flux-Residual          L2-NORM 
          0                 1           7            92   77     2      -0.8474381014E+02      30   52    2        -0.1108841004E+06      0.7605356217E+06
          0                 2           5            92   77     2       0.1710005557E+02      72   15    2         0.2559901215E+05      0.8519162814E+05
          0                 3           2            92   77     2       0.7421230479E+00      70   55    2        -0.6277942168E+03      0.1275859650E+04
          0                 4           2            92   77     2       0.3077739181E-01      55  100    3         0.5949987416E+02      0.6354302469E+02
          0                 5           2            92   77     2       0.1282733411E-02      55  100    3        -0.2117920519E+02      0.2128142411E+02

    ------------------------------------------------
       NWT REQUIRED            5 OUTER ITERATIONS 
       AND A TOTAL OF         18 INNER ITERATIONS.
    ------------------------------------------------

 NO OUTPUT CONTROL FOR STRESS PERIOD   62   TIME STEP    4
 
 SOLVING FOR HEAD 
                                                   Max.-Head-Change                         Max.-Flux-Residual
  Residual-Control   Outer-Iter.   Inner-Iter.     Column Row Layer    Maximum-Head-Change  Column Row Layer    Maximum-Flux-Residual          L2-NORM 
          0                 1           6            29   52     2      -0.3304365075E+01      30   52    2        -0.8428018241E+05      0.6992317868E+06
          0                 2           5            65    3     2      -0.2247088750E+02      70   19    2         0.2034905561E+05      0.8055228334E+05
          0                 3           3            65    3     2       0.8227695543E+00      32   67    3        -0.7266270098E+04      0.7406676039E+04
          0                 4           2            65    3     2       0.4328560182E-01      32   67    3         0.9984097004E+03      0.1095266745E+04
          0                 5           2            65    3     2       0.2271401937E-02      55  100    3        -0.1234645439E+02      0.2551898122E+02

    ------------------------------------------------
       NWT REQUIRED            5 OUTER ITERATIONS 
       AND A TOTAL OF         18 INNER ITERATIONS.
    ------------------------------------------------

 NO OUTPUT CONTROL FOR STRESS PERIOD   62   TIME STEP    5
 
 SOLVING FOR HEAD 
                                                   Max.-Head-Change                         Max.-Flux-Residual
  Residual-Control   Outer-Iter.   Inner-Iter.     Column Row Layer    Maximum-Head-Change  Column Row Layer    Maximum-Flux-Residual          L2-NORM 
          0                 1           6            65    3     2      -0.7086356184E+01      29   52    2        -0.6905155373E+05      0.6554828427E+06
          0                 2           5            65    5     2      -0.2072993060E+02      32   25    1        -0.2414157214E+05      0.7255952028E+05
          0                 3           2            65    5     2       0.9366569286E+00      65    5    2         0.5327968579E+03      0.8512859469E+03
          0                 4           2            65    5     2       0.4204130093E-01      65    5    2         0.2373780842E+02      0.3684459441E+02
          0                 5           2            65    5     2       0.1883477585E-02      55  100    3        -0.7270105362E+01      0.7517791981E+01

    ------------------------------------------------
       NWT REQUIRED            5 OUTER ITERATIONS 
       AND A TOTAL OF         17 INNER ITERATIONS.
    ------------------------------------------------

 NO OUTPUT CONTROL FOR STRESS PERIOD   62   TIME STEP    6
 
 SOLVING FOR HEAD 
                                                   Max.-Head-Change                         Max.-Flux-Residual
  Residual-Control   Outer-Iter.   Inner-Iter.     Column Row Layer    Maximum-Head-Change  Column Row Layer    Maximum-Flux-Residual          L2-NORM 
          0                 1           6            65    5     2      -0.1242333030E+02      84   52    1        -0.6361050047E+05      0.6227427703E+06
          0                 2           5            72   59     1      -0.8930224019E+00      84   52    1         0.6303643261E+04      0.6341105073E+05
          0                 3           2            72   59     1       0.7471822353E-01      60   94    2        -0.2006961214E+04      0.2073409829E+04
          0                 4           2            60   94     1      -0.4392625445E-02      60   94    2        -0.1807709847E+03      0.1815794355E+03

    ------------------------------------------------
       NWT REQUIRED            4 OUTER ITERATIONS 
       AND A TOTAL OF         15 INNER ITERATIONS.
    ------------------------------------------------

 NO OUTPUT CONTROL FOR STRESS PERIOD   62   TIME STEP    7
 
 SOLVING FOR HEAD 
                                                   Max.-Head-Change                         Max.-Flux-Residual
  Residual-Control   Outer-Iter.   Inner-Iter.     Column Row Layer    Maximum-Head-Change  Column Row Layer    Maximum-Flux-Residual          L2-NORM 
          0                 1           6            29   52     2      -0.2008507809E+01      84   52    1        -0.5995354539E+05      0.5969882860E+06
          0                 2           5            60   94     2      -0.1400264701E+01      62   90    2         0.1951949847E+05      0.6798932312E+05
          0                 3           3            60   94     2       0.1099194199E+00      59   67    1        -0.6350274455E+04      0.7624408570E+04
          0                 4           2            59   67     1      -0.5810335784E-02      59   67    1        -0.5721168771E+03      0.6839522173E+03

    ------------------------------------------------
       NWT REQUIRED            4 OUTER ITERATIONS 
       AND A TOTAL OF         16 INNER ITERATIONS.
    ------------------------------------------------

 NO OUTPUT CONTROL FOR STRESS PERIOD   62   TIME STEP    8
 
 SOLVING FOR HEAD 
                                                   Max.-Head-Change                         Max.-Flux-Residual
  Residual-Control   Outer-Iter.   Inner-Iter.     Column Row Layer    Maximum-Head-Change  Column Row Layer    Maximum-Flux-Residual          L2-NORM 
          0                 1           6            29   52     2      -0.1736888143E+01      84   52    1        -0.5674186539E+05      0.5763888338E+06
          0                 2           5            63   57     1      -0.6066361502E+00      69   52    2         0.1291802729E+05      0.6196274224E+05
          0                 3           2            63   57     1       0.5303221184E-01      69   52    2        -0.1291697916E+04      0.2015457402E+04
          0                 4           1            85   85     2      -0.1897948774E-03      71   98    2        -0.1420931521E+03      0.1425502673E+03

    ------------------------------------------------
       NWT REQUIRED            4 OUTER ITERATIONS 
       AND A TOTAL OF         14 INNER ITERATIONS.
    ------------------------------------------------

 NO OUTPUT CONTROL FOR STRESS PERIOD   62   TIME STEP    9
 
 SOLVING FOR HEAD 
                                                   Max.-Head-Change                         Max.-Flux-Residual
  Residual-Control   Outer-Iter.   Inner-Iter.     Column Row Layer    Maximum-Head-Change  Column Row Layer    Maximum-Flux-Residual          L2-NORM 
          0                 1           6            29   52     2      -0.1517717916E+01      84   52    1        -0.5390471049E+05      0.5599622495E+06
          0                 2           5            35   69     2      -0.6961117652E+01      70   62    2         0.7877231790E+04      0.5772404790E+05
          0                 3           3            35   69     2       0.4393228247E+00      52   45    1        -0.6071319378E+04      0.6133321840E+04
          0                 4           2            35   69     2       0.1213577692E-01      52   45    1        -0.5469707015E+03      0.6111772986E+03
          0                 5           1            71   98     2       0.8225336512E-03      52   45    1        -0.4928843461E+02      0.5659460853E+02

    ------------------------------------------------
       NWT REQUIRED            5 OUTER ITERATIONS 
       AND A TOTAL OF         17 INNER ITERATIONS.
    ------------------------------------------------

 NO OUTPUT CONTROL FOR STRESS PERIOD   62   TIME STEP   10
 
 SOLVING FOR HEAD 
                                                   Max.-Head-Change                         Max.-Flux-Residual
  Residual-Control   Outer-Iter.   Inner-Iter.     Column Row Layer    Maximum-Head-Change  Column Row Layer    Maximum-Flux-Residual          L2-NORM 
          0                 1           6            36   69     2      -0.7329531312E+01      84   52    1        -0.5138564343E+05      0.5463363212E+06
          0                 2           5            70   19     1      -0.5907331521E+00      32   25    2         0.1993969760E+05      0.5941061740E+05
          0                 3           2            70   19     1       0.5150551649E-01      32   25    2        -0.1975001584E+04      0.2275555781E+04
          0                 4           1            28   64     1       0.5303791706E-03      43   32    1        -0.6574742794E+01      0.8658641625E+01

    ------------------------------------------------
       NWT REQUIRED            4 OUTER ITERATIONS 
       AND A TOTAL OF         14 INNER ITERATIONS.
    ------------------------------------------------

 NO OUTPUT CONTROL FOR STRESS PERIOD   62   TIME STEP   11
 
 SOLVING FOR HEAD 
                                                   Max.-Head-Change                         Max.-Flux-Residual
  Residual-Control   Outer-Iter.   Inner-Iter.     Column Row Layer    Maximum-Head-Change  Column Row Layer    Maximum-Flux-Residual          L2-NORM 
          0                 1           6            70   19     1      -0.3442449542E+01      84   52    1        -0.4913844676E+05      0.5347974268E+06
          0                 2           5            34   68     2      -0.7622598308E+01      72   15    1        -0.1085815415E+05      0.5674369345E+05
          0                 3           2            34   68     2       0.5269470244E+00      61   43    1         0.2367343876E+04      0.3333480486E+04
          0                 4           2            34   68     2       0.1144348410E-01      61   44    1        -0.6843051212E+02      0.7284731251E+02
          0                 5           1            34   68     2       0.2465873665E-03      61   44    1        -0.5522707887E+01      0.5603090296E+01

    ------------------------------------------------
       NWT REQUIRED            5 OUTER ITERATIONS 
       AND A TOTAL OF         16 INNER ITERATIONS.
    ------------------------------------------------

 OUTPUT CONTROL FOR STRESS PERIOD   62   TIME STEP   12
    SAVE BUDGET
 UBDSV1 SAVING "         STORAGE" ON UNIT  39 AT TIME STEP 12, STRESS PERIOD  62
 UBDSV2 SAVING "   CONSTANT HEAD" ON UNIT  39 AT TIME STEP 12, STRESS PERIOD  62
 UBDSV1 SAVING "FLOW RIGHT FACE " ON UNIT  39 AT TIME STEP 12, STRESS PERIOD  62
 UBDSV1 SAVING "FLOW FRONT FACE " ON UNIT  39 AT TIME STEP 12, STRESS PERIOD  62
 UBDSV1 SAVING "FLOW LOWER FACE " ON UNIT  39 AT TIME STEP 12, STRESS PERIOD  62
 UBDSV4 SAVING "           WELLS" ON UNIT  39 AT TIME STEP 12, STRESS PERIOD  62
 UBDSV3 SAVING "              ET" ON UNIT  39 AT TIME STEP 12, STRESS PERIOD  62
 UBDSV3 SAVING "        RECHARGE" ON UNIT  39 AT TIME STEP 12, STRESS PERIOD  62
1
  VOLUMETRIC BUDGET FOR ENTIRE MODEL AT END OF TIME STEP   12, STRESS PERIOD  62
  ------------------------------------------------------------------------------

     CUMULATIVE VOLUMES      L**3       RATES FOR THIS TIME STEP      L**3/T
     ------------------                 ------------------------

           IN:                                      IN:
           ---                                      ---
             STORAGE =401761501184.0000               STORAGE =    20804904.0000
       CONSTANT HEAD = 41652817920.0000         CONSTANT HEAD =     2530858.7500
               WELLS = 27755382784.0000                 WELLS =     1225642.0000
                  ET =           0.0000                    ET =           0.0000
            RECHARGE =468935081984.0000              RECHARGE =    19532334.0000

            TOTAL IN =940104744960.0000              TOTAL IN =    44093736.0000

          OUT:                                     OUT:
          ----                                     ----
             STORAGE = 93263380480.0000               STORAGE =     5196660.0000
       CONSTANT HEAD = 69056430080.0000         CONSTANT HEAD =     1817236.1250
               WELLS =754838994944.0000                 WELLS =    36653540.0000
                  ET = 22945470464.0000                    ET =      426307.0312
            RECHARGE =           0.0000              RECHARGE =           0.0000

           TOTAL OUT =940104220672.0000             TOTAL OUT =    44093744.0000

            IN - OUT =      524288.0000              IN - OUT =          -8.0000

 PERCENT DISCREPANCY =           0.00     PERCENT DISCREPANCY =          -0.00






         TIME SUMMARY AT END OF TIME STEP   12 IN STRESS PERIOD   62
                    SECONDS     MINUTES      HOURS       DAYS        YEARS
                    -----------------------------------------------------------
   TIME STEP LENGTH 2.62800E+06  43800.      730.00      30.417     8.32763E-02
 STRESS PERIOD TIME 3.15360E+07 5.25600E+05  8760.0      365.00     0.99932    
         TOTAL TIME 1.95661E+09 3.26102E+07 5.43503E+05  22646.      62.001    
1
1
                            STRESS PERIOD NO.   63, LENGTH =   365.0000    
                            -----------------------------------------------

                              NUMBER OF TIME STEPS =    12

                               MULTIPLIER FOR DELT =     1.000

                            INITIAL TIME STEP SIZE =   30.41667    

   1621 WELLS

 REUSING SURF FROM LAST STRESS PERIOD

 REUSING EVTR FROM LAST STRESS PERIOD

 REUSING EXDP FROM LAST STRESS PERIOD



                           RECHARGE
 READING ON UNIT   16 WITH FORMAT: (15F5.0)            


     63 TIME-VARIANT SPECIFIED-HEAD CELLS
 
 SOLVING FOR HEAD 
                                                   Max.-Head-Change                         Max.-Flux-Residual
  Residual-Control   Outer-Iter.   Inner-Iter.     Column Row Layer    Maximum-Head-Change  Column Row Layer    Maximum-Flux-Residual          L2-NORM 
          0                 1           7            86   55     3       0.4314621449E+02      29   53    3        -0.3546377832E+06      0.1439441925E+07
          0                 2           6            54  116     3      -0.3030526331E+01      74   64    2         0.4757026916E+05      0.1674817076E+06
          0                 3           2            63   93     1      -0.8988665245E-01      63   93    1        -0.4801405346E+04      0.5019587762E+04
          0                 4           2            63   93     1      -0.8130782449E-02      63   93    1        -0.4339527606E+03      0.4616118359E+03

    ------------------------------------------------
       NWT REQUIRED            4 OUTER ITERATIONS 
       AND A TOTAL OF         17 INNER ITERATIONS.
    ------------------------------------------------

 NO OUTPUT CONTROL FOR STRESS PERIOD   63   TIME STEP    1
 
 SOLVING FOR HEAD 
                                                   Max.-Head-Change                         Max.-Flux-Residual
  Residual-Control   Outer-Iter.   Inner-Iter.     Column Row Layer    Maximum-Head-Change  Column Row Layer    Maximum-Flux-Residual          L2-NORM 
          0                 1           7            80   54     3       0.8565887135E+01      33   27    1         0.2138019507E+06      0.9615155412E+06
          0                 2           5            33   67     2      -0.5307316681E+01      33   27    1        -0.2308971201E+05      0.9976675699E+05
          0                 3           2            33   67     2       0.2549987329E+00      59   74    1        -0.1610899919E+04      0.2285667604E+04
          0                 4           2            33   67     1       0.1105049990E-01      59   74    1        -0.1450467021E+03      0.1835135264E+03
          0                 5           2            55  100     3       0.1026140083E-02      55  100    3         0.3162761119E+02      0.3424885138E+02

    ------------------------------------------------
       NWT REQUIRED            5 OUTER ITERATIONS 
       AND A TOTAL OF         18 INNER ITERATIONS.
    ------------------------------------------------

 NO OUTPUT CONTROL FOR STRESS PERIOD   63   TIME STEP    2
 
 SOLVING FOR HEAD 
                                                   Max.-Head-Change                         Max.-Flux-Residual
  Residual-Control   Outer-Iter.   Inner-Iter.     Column Row Layer    Maximum-Head-Change  Column Row Layer    Maximum-Flux-Residual          L2-NORM 
          0                 1           7            28   52     2      -0.3964191143E+01      33   27    1         0.1423713906E+06      0.8313876616E+06
          0                 2           5            89   67     2       0.4582985907E+00      89   67    2         0.1899648514E+05      0.8616372343E+05
          0                 3           2            59   74     1       0.1236061710E-01      14   12    2        -0.4614908080E+03      0.6711816658E+03
          0                 4           2            55  100     3      -0.2741386926E-02      55  100    3        -0.7706646337E+02      0.7714035214E+02

    ------------------------------------------------
       NWT REQUIRED            4 OUTER ITERATIONS 
       AND A TOTAL OF         16 INNER ITERATIONS.
    ------------------------------------------------

 NO OUTPUT CONTROL FOR STRESS PERIOD   63   TIME STEP    3
 
 SOLVING FOR HEAD 
                                                   Max.-Head-Change                         Max.-Flux-Residual
  Residual-Control   Outer-Iter.   Inner-Iter.     Column Row Layer    Maximum-Head-Change  Column Row Layer    Maximum-Flux-Residual          L2-NORM 
          0                 1           7            28   52     2      -0.3442003846E+01      61   85    2         0.1049327457E+06      0.7669233454E+06
          0                 2           5            84   52     2       0.7016446671E+00      84   52    2         0.3224665459E+05      0.8648723559E+05
          0                 3           2            32   49     2       0.8837261657E-02      30   25    2        -0.1003025913E+04      0.1137095080E+04

    ------------------------------------------------
       NWT REQUIRED            3 OUTER ITERATIONS 
       AND A TOTAL OF         14 INNER ITERATIONS.
    ------------------------------------------------

 NO OUTPUT CONTROL FOR STRESS PERIOD   63   TIME STEP    4
 
 SOLVING FOR HEAD 
                                                   Max.-Head-Change                         Max.-Flux-Residual
  Residual-Control   Outer-Iter.   Inner-Iter.     Column Row Layer    Maximum-Head-Change  Column Row Layer    Maximum-Flux-Residual          L2-NORM 
          0                 1           7            61   85     1       0.3211391332E+01      61   85    2         0.1027532413E+06      0.7271498560E+06
          0                 2           6            30   80     2      -0.3061958436E+00      44   31    2         0.1539838138E+05      0.7687886174E+05
          0                 3           2            30   80     2       0.2195307568E-01      60   54    1         0.3975621346E+03      0.4272465612E+03
          0                 4           2            55  100     3      -0.1230141515E-02      55  100    3        -0.3458011553E+02      0.3462864663E+02

    ------------------------------------------------
       NWT REQUIRED            4 OUTER ITERATIONS 
       AND A TOTAL OF         17 INNER ITERATIONS.
    ------------------------------------------------

 NO OUTPUT CONTROL FOR STRESS PERIOD   63   TIME STEP    5
 
 SOLVING FOR HEAD 
                                                   Max.-Head-Change                         Max.-Flux-Residual
  Residual-Control   Outer-Iter.   Inner-Iter.     Column Row Layer    Maximum-Head-Change  Column Row Layer    Maximum-Flux-Residual          L2-NORM 
          0                 1           7            61   85     1       0.3069111596E+01      61   85    2         0.9966290168E+05      0.6992287070E+06
          0                 2           5            92   67     1      -0.3096634710E+01      92   67    1        -0.1511650260E+05      0.7467484497E+05
          0                 3           2            92   67     1       0.2572726511E+00      31   70    2        -0.3338296361E+04      0.3685395467E+04
          0                 4           2            31   70     2      -0.9124678779E-02      31   70    2        -0.3007576443E+03      0.3021683274E+03

    ------------------------------------------------
       NWT REQUIRED            4 OUTER ITERATIONS 
       AND A TOTAL OF         16 INNER ITERATIONS.
    ------------------------------------------------

 NO OUTPUT CONTROL FOR STRESS PERIOD   63   TIME STEP    6
 
 SOLVING FOR HEAD 
                                                   Max.-Head-Change                         Max.-Flux-Residual
  Residual-Control   Outer-Iter.   Inner-Iter.     Column Row Layer    Maximum-Head-Change  Column Row Layer    Maximum-Flux-Residual          L2-NORM 
          0                 1           7            77   46     1      -0.5984980497E+01      61   85    2         0.9595041662E+05      0.6775366907E+06
          0                 2           6            31   70     2      -0.2385827010E+01      33   23    1        -0.2559212696E+05      0.7637373176E+05
          0                 3           3            31   70     2       0.1758829189E+00      72   63    1        -0.2315859785E+04      0.3237705890E+04
          0                 4           2            72   63     1      -0.7372914781E-02      72   63    1        -0.2086223165E+03      0.2098527358E+03

    ------------------------------------------------
       NWT REQUIRED            4 OUTER ITERATIONS 
       AND A TOTAL OF         18 INNER ITERATIONS.
    ------------------------------------------------

 NO OUTPUT CONTROL FOR STRESS PERIOD   63   TIME STEP    7
 
 SOLVING FOR HEAD 
                                                   Max.-Head-Change                         Max.-Flux-Residual
  Residual-Control   Outer-Iter.   Inner-Iter.     Column Row Layer    Maximum-Head-Change  Column Row Layer    Maximum-Flux-Residual          L2-NORM 
          0                 1           7            61   85     1       0.2762847187E+01      61   85    2         0.9196631293E+05      0.6606646826E+06
          0                 2           5            72   63     1      -0.2746376985E+01      34   24    1        -0.2577707734E+05      0.7882823078E+05
          0                 3           3            72   63     1       0.2236433823E+00      37   24    2         0.3217203678E+04      0.3319671444E+04
          0                 4           2            37   69     2       0.3978331236E-02      37   24    2         0.2896425748E+03      0.3122324930E+03

    ------------------------------------------------
       NWT REQUIRED            4 OUTER ITERATIONS 
       AND A TOTAL OF         17 INNER ITERATIONS.
    ------------------------------------------------

 NO OUTPUT CONTROL FOR STRESS PERIOD   63   TIME STEP    8
 
 SOLVING FOR HEAD 
                                                   Max.-Head-Change                         Max.-Flux-Residual
  Residual-Control   Outer-Iter.   Inner-Iter.     Column Row Layer    Maximum-Head-Change  Column Row Layer    Maximum-Flux-Residual          L2-NORM 
          0                 1           7            37   69     2      -0.3336884690E+01      61   85    2         0.8768078989E+05      0.6452652036E+06
          0                 2           5            25   54     3       0.2675005820E+00      54   41    2         0.1862593384E+05      0.7034310805E+05
          0                 3           3            25   54     2      -0.4097819681E-01      34   24    2         0.3186572226E+04      0.4685859097E+04
          0                 4           2            25   54     2      -0.3690559556E-02      34   24    2         0.2868327272E+03      0.4639797958E+03

    ------------------------------------------------
       NWT REQUIRED            4 OUTER ITERATIONS 
       AND A TOTAL OF         17 INNER ITERATIONS.
    ------------------------------------------------

 NO OUTPUT CONTROL FOR STRESS PERIOD   63   TIME STEP    9
 
 SOLVING FOR HEAD 
                                                   Max.-Head-Change                         Max.-Flux-Residual
  Residual-Control   Outer-Iter.   Inner-Iter.     Column Row Layer    Maximum-Head-Change  Column Row Layer    Maximum-Flux-Residual          L2-NORM 
          0                 1           7            75   47     1      -0.2932990016E+01      61   85    2         0.8335181325E+05      0.6313660275E+06
          0                 2           5            53   40     1      -0.1328827313E+01      34   24    2         0.2604072543E+05      0.7370580183E+05
          0                 3           3            53   40     1       0.1165588607E+00      34   24    2        -0.2596400493E+04      0.3721180057E+04
          0                 4           1            26   54     2      -0.7084022687E-03      71   97    2        -0.3322494609E+03      0.3342242611E+03

    ------------------------------------------------
       NWT REQUIRED            4 OUTER ITERATIONS 
       AND A TOTAL OF         16 INNER ITERATIONS.
    ------------------------------------------------

 NO OUTPUT CONTROL FOR STRESS PERIOD   63   TIME STEP   10
 
 SOLVING FOR HEAD 
                                                   Max.-Head-Change                         Max.-Flux-Residual
  Residual-Control   Outer-Iter.   Inner-Iter.     Column Row Layer    Maximum-Head-Change  Column Row Layer    Maximum-Flux-Residual          L2-NORM 
          0                 1           7            61   85     1       0.2329820084E+01      61   85    2         0.7909184759E+05      0.6206386596E+06
          0                 2           5            69   47     1      -0.2181542029E+01      33   22    1        -0.1745800415E+05      0.6844602087E+05
          0                 3           2            69   47     1       0.1836513667E+00      69   47    1         0.1138994816E+04      0.1790797909E+04
          0                 4           2            71   97     2      -0.1450691587E-01      71   97    2        -0.4366446538E+03      0.4418402420E+03
          0                 5           2            71   97     2       0.1318751350E-02      71   97    2         0.4404180326E+02      0.4474286913E+02

    ------------------------------------------------
       NWT REQUIRED            5 OUTER ITERATIONS 
       AND A TOTAL OF         18 INNER ITERATIONS.
    ------------------------------------------------

 NO OUTPUT CONTROL FOR STRESS PERIOD   63   TIME STEP   11
 
 SOLVING FOR HEAD 
                                                   Max.-Head-Change                         Max.-Flux-Residual
  Residual-Control   Outer-Iter.   Inner-Iter.     Column Row Layer    Maximum-Head-Change  Column Row Layer    Maximum-Flux-Residual          L2-NORM 
          0                 1           7            83   52     1      -0.1139550477E+02      61   85    2         0.7496991765E+05      0.6102274406E+06
          0                 2           5            87   52     1      -0.8719141912E+00      87   52    1        -0.1113840301E+05      0.6413856417E+05
          0                 3           2            87   52     1       0.7688345117E-01      87   52    1         0.1079252254E+04      0.1191922337E+04
          0                 4           1            55  100     3      -0.3009823444E-03      44   32    1        -0.1463220340E+02      0.1827746268E+02

    ------------------------------------------------
       NWT REQUIRED            4 OUTER ITERATIONS 
       AND A TOTAL OF         15 INNER ITERATIONS.
    ------------------------------------------------

 OUTPUT CONTROL FOR STRESS PERIOD   63   TIME STEP   12
    SAVE BUDGET
 UBDSV1 SAVING "         STORAGE" ON UNIT  39 AT TIME STEP 12, STRESS PERIOD  63
 UBDSV2 SAVING "   CONSTANT HEAD" ON UNIT  39 AT TIME STEP 12, STRESS PERIOD  63
 UBDSV1 SAVING "FLOW RIGHT FACE " ON UNIT  39 AT TIME STEP 12, STRESS PERIOD  63
 UBDSV1 SAVING "FLOW FRONT FACE " ON UNIT  39 AT TIME STEP 12, STRESS PERIOD  63
 UBDSV1 SAVING "FLOW LOWER FACE " ON UNIT  39 AT TIME STEP 12, STRESS PERIOD  63
 UBDSV4 SAVING "           WELLS" ON UNIT  39 AT TIME STEP 12, STRESS PERIOD  63
 UBDSV3 SAVING "              ET" ON UNIT  39 AT TIME STEP 12, STRESS PERIOD  63
 UBDSV3 SAVING "        RECHARGE" ON UNIT  39 AT TIME STEP 12, STRESS PERIOD  63
1
  VOLUMETRIC BUDGET FOR ENTIRE MODEL AT END OF TIME STEP   12, STRESS PERIOD  63
  ------------------------------------------------------------------------------

     CUMULATIVE VOLUMES      L**3       RATES FOR THIS TIME STEP      L**3/T
     ------------------                 ------------------------

           IN:                                      IN:
           ---                                      ---
             STORAGE =410007633920.0000               STORAGE =    21781354.0000
       CONSTANT HEAD = 42587901952.0000         CONSTANT HEAD =     2548237.5000
               WELLS = 28202739712.0000                 WELLS =     1225642.0000
                  ET =           0.0000                    ET =           0.0000
            RECHARGE =476406972416.0000              RECHARGE =    20470828.0000

            TOTAL IN =957205250048.0000              TOTAL IN =    46026064.0000

          OUT:                                     OUT:
          ----                                     ----
             STORAGE = 96148652032.0000               STORAGE =     7178107.5000
       CONSTANT HEAD = 69726724096.0000         CONSTANT HEAD =     1837565.7500
               WELLS =768285868032.0000                 WELLS =    36832440.0000
                  ET = 23043536896.0000                    ET =      177969.5938
            RECHARGE =           0.0000              RECHARGE =           0.0000

           TOTAL OUT =957204725760.0000             TOTAL OUT =    46026080.0000

            IN - OUT =      524288.0000              IN - OUT =         -16.0000

 PERCENT DISCREPANCY =           0.00     PERCENT DISCREPANCY =          -0.00






         TIME SUMMARY AT END OF TIME STEP   12 IN STRESS PERIOD   63
                    SECONDS     MINUTES      HOURS       DAYS        YEARS
                    -----------------------------------------------------------
   TIME STEP LENGTH 2.62800E+06  43800.      730.00      30.417     8.32763E-02
 STRESS PERIOD TIME 3.15360E+07 5.25600E+05  8760.0      365.00     0.99932    
         TOTAL TIME 1.98815E+09 3.31358E+07 5.52263E+05  23011.      63.001    
1
1
                            STRESS PERIOD NO.   64, LENGTH =   365.0000    
                            -----------------------------------------------

                              NUMBER OF TIME STEPS =    12

                               MULTIPLIER FOR DELT =     1.000

                            INITIAL TIME STEP SIZE =   30.41667    

   1566 WELLS

 REUSING SURF FROM LAST STRESS PERIOD

 REUSING EVTR FROM LAST STRESS PERIOD

 REUSING EXDP FROM LAST STRESS PERIOD



                           RECHARGE
 READING ON UNIT   16 WITH FORMAT: (15F5.0)            


     63 TIME-VARIANT SPECIFIED-HEAD CELLS
 
 SOLVING FOR HEAD 
                                                   Max.-Head-Change                         Max.-Flux-Residual
  Residual-Control   Outer-Iter.   Inner-Iter.     Column Row Layer    Maximum-Head-Change  Column Row Layer    Maximum-Flux-Residual          L2-NORM 
          0                 1           8            65    2     2       0.9173035269E+02      29   52    3        -0.7108579260E+06      0.1652755962E+07
          0                 2           6            65    5     2      -0.1927141534E+02      65    5    2        -0.5117726661E+06      0.8038933628E+06
          0                 3           3            66    5     2       0.2124943310E+01      69   21    1        -0.7458742005E+04      0.9690870355E+04
          0                 4           2            66    5     2       0.3223945374E+00      65    4    2         0.2197103140E+03      0.3353953460E+03
          0                 5           2            66    5     2       0.4841208392E-01      66    5    2         0.2024912252E+02      0.3589190875E+02
          0                 6           2            66    5     2       0.7265432893E-02      66    5    2         0.3038688152E+01      0.4313380186E+01

    ------------------------------------------------
       NWT REQUIRED            6 OUTER ITERATIONS 
       AND A TOTAL OF         23 INNER ITERATIONS.
    ------------------------------------------------

 NO OUTPUT CONTROL FOR STRESS PERIOD   64   TIME STEP    1
 
 SOLVING FOR HEAD 
                                                   Max.-Head-Change                         Max.-Flux-Residual
  Residual-Control   Outer-Iter.   Inner-Iter.     Column Row Layer    Maximum-Head-Change  Column Row Layer    Maximum-Flux-Residual          L2-NORM 
          0                 1           7            29   51     2       0.1181598632E+02      29   51    2         0.3355255245E+06      0.9492068714E+06
          0                 2           5            29   51     2      -0.1220441985E+01      29   51    2        -0.4105354485E+05      0.1035370738E+06
          0                 3           2            78   52     1       0.6051153688E-01      61   82    2        -0.1444561439E+04      0.1745512665E+04
          0                 4           2            55  100     3      -0.2057300861E-02      55  100    3        -0.5793868468E+02      0.5931428524E+02

    ------------------------------------------------
       NWT REQUIRED            4 OUTER ITERATIONS 
       AND A TOTAL OF         16 INNER ITERATIONS.
    ------------------------------------------------

 NO OUTPUT CONTROL FOR STRESS PERIOD   64   TIME STEP    2
 
 SOLVING FOR HEAD 
                                                   Max.-Head-Change                         Max.-Flux-Residual
  Residual-Control   Outer-Iter.   Inner-Iter.     Column Row Layer    Maximum-Head-Change  Column Row Layer    Maximum-Flux-Residual          L2-NORM 
          0                 1           7            29   51     2       0.8272629705E+01      29   51    2         0.2427265259E+06      0.7950622706E+06
          0                 2           5            73   15     3       0.1162574298E+01      29   51    2        -0.3179403755E+05      0.8659351741E+05
          0                 3           2            73   15     3      -0.1054914558E+00      73   15    3        -0.9230449802E+03      0.1446465560E+04
          0                 4           2            55  100     3      -0.1907888926E-02      55  100    3        -0.5372291731E+02      0.6665359398E+02

    ------------------------------------------------
       NWT REQUIRED            4 OUTER ITERATIONS 
       AND A TOTAL OF         16 INNER ITERATIONS.
    ------------------------------------------------

 NO OUTPUT CONTROL FOR STRESS PERIOD   64   TIME STEP    3
 
 SOLVING FOR HEAD 
                                                   Max.-Head-Change                         Max.-Flux-Residual
  Residual-Control   Outer-Iter.   Inner-Iter.     Column Row Layer    Maximum-Head-Change  Column Row Layer    Maximum-Flux-Residual          L2-NORM 
          0                 1           7            29   51     2       0.5568961395E+01      29   51    2         0.1686167410E+06      0.7077863033E+06
          0                 2           5            29   51     2      -0.5687333428E+00      29   51    2        -0.1991683456E+05      0.7624380678E+05
          0                 3           2            74   64     1       0.2940526539E-01      51   42    1         0.1006018883E+04      0.1523133371E+04
          0                 4           2            55  100     3      -0.1661034402E-02      55  100    3        -0.4677217953E+02      0.5575684485E+02

    ------------------------------------------------
       NWT REQUIRED            4 OUTER ITERATIONS 
       AND A TOTAL OF         16 INNER ITERATIONS.
    ------------------------------------------------

 NO OUTPUT CONTROL FOR STRESS PERIOD   64   TIME STEP    4
 
 SOLVING FOR HEAD 
                                                   Max.-Head-Change                         Max.-Flux-Residual
  Residual-Control   Outer-Iter.   Inner-Iter.     Column Row Layer    Maximum-Head-Change  Column Row Layer    Maximum-Flux-Residual          L2-NORM 
          0                 1           7            29   51     2       0.3741253512E+01      29   51    2         0.1145999917E+06      0.6541484106E+06
          0                 2           5            82   49     1      -0.3134216263E+01      29   51    2        -0.1267447170E+05      0.6903089080E+05
          0                 3           2            82   49     1       0.2346829006E+00      54   41    1         0.1017055204E+04      0.1579644136E+04
          0                 4           2            82   49     1       0.3753975640E-02      55  100    3        -0.3909538703E+02      0.4189705055E+02

    ------------------------------------------------
       NWT REQUIRED            4 OUTER ITERATIONS 
       AND A TOTAL OF         16 INNER ITERATIONS.
    ------------------------------------------------

 NO OUTPUT CONTROL FOR STRESS PERIOD   64   TIME STEP    5
 
 SOLVING FOR HEAD 
                                                   Max.-Head-Change                         Max.-Flux-Residual
  Residual-Control   Outer-Iter.   Inner-Iter.     Column Row Layer    Maximum-Head-Change  Column Row Layer    Maximum-Flux-Residual          L2-NORM 
          0                 1           7            82   49     1      -0.3728311711E+01      61   85    2         0.8112103065E+05      0.6184023470E+06
          0                 2           5            61   25     2      -0.2365046012E+01      62   96    2         0.1883145056E+05      0.7075170059E+05
          0                 3           2            61   25     2       0.1794275356E+00      29   24    2        -0.1034692617E+04      0.1573357478E+04
          0                 4           2            61   25     2       0.2703428506E-02      55  100    3        -0.3174924658E+02      0.3456832642E+02

    ------------------------------------------------
       NWT REQUIRED            4 OUTER ITERATIONS 
       AND A TOTAL OF         16 INNER ITERATIONS.
    ------------------------------------------------

 NO OUTPUT CONTROL FOR STRESS PERIOD   64   TIME STEP    6
 
 SOLVING FOR HEAD 
                                                   Max.-Head-Change                         Max.-Flux-Residual
  Residual-Control   Outer-Iter.   Inner-Iter.     Column Row Layer    Maximum-Head-Change  Column Row Layer    Maximum-Flux-Residual          L2-NORM 
          0                 1           7            70   17     2       0.2530097312E+01      61   85    2         0.7839215649E+05      0.5924948082E+06
          0                 2           5            71   11     2      -0.4148712179E+01      62   86    2         0.1567485548E+05      0.6286860183E+05
          0                 3           3            71   11     2       0.4122594303E+00      70   19    2         0.1063759842E+05      0.1080741981E+05
          0                 4           2            71   11     2       0.2190220604E-01      70   19    2         0.9567850404E+03      0.9580904896E+03
          0                 5           2            70   19     2       0.1871654576E-02      70   19    2         0.8601529497E+02      0.8613516375E+02

    ------------------------------------------------
       NWT REQUIRED            5 OUTER ITERATIONS 
       AND A TOTAL OF         19 INNER ITERATIONS.
    ------------------------------------------------

 NO OUTPUT CONTROL FOR STRESS PERIOD   64   TIME STEP    7
 
 SOLVING FOR HEAD 
                                                   Max.-Head-Change                         Max.-Flux-Residual
  Residual-Control   Outer-Iter.   Inner-Iter.     Column Row Layer    Maximum-Head-Change  Column Row Layer    Maximum-Flux-Residual          L2-NORM 
          0                 1           7            30   47     2      -0.3999889734E+01      61   85    2         0.7503001573E+05      0.5742418593E+06
          0                 2           5            70   19     2       0.3864225590E+01      70   19    2         0.4304604912E+05      0.7232114080E+05
          0                 3           3            71   19     2       0.6194221980E+00      70   19    2        -0.7537830464E+04      0.8249476733E+04
          0                 4           2            71   19     2       0.5998987689E-01      71   19    2         0.2501881089E+03      0.2641752712E+03
          0                 5           2            71   19     2       0.5804489170E-02      71   19    2         0.2415115435E+02      0.2531801809E+02

    ------------------------------------------------
       NWT REQUIRED            5 OUTER ITERATIONS 
       AND A TOTAL OF         19 INNER ITERATIONS.
    ------------------------------------------------

 NO OUTPUT CONTROL FOR STRESS PERIOD   64   TIME STEP    8
 
 SOLVING FOR HEAD 
                                                   Max.-Head-Change                         Max.-Flux-Residual
  Residual-Control   Outer-Iter.   Inner-Iter.     Column Row Layer    Maximum-Head-Change  Column Row Layer    Maximum-Flux-Residual          L2-NORM 
          0                 1           7            70   19     1       0.2585399264E+01      70   19    1         0.7360303341E+05      0.5610759765E+06
          0                 2           5            72   15     2       0.1766138956E+01      71   19    2        -0.1753374304E+05      0.6468593831E+05
          0                 3           2            72   15     2      -0.1604209810E+00      72   15    2        -0.1564359847E+04      0.1704103900E+04
          0                 4           1            70   63     1       0.8637789658E-03      55  100    3        -0.1595277780E+02      0.1976308042E+02

    ------------------------------------------------
       NWT REQUIRED            4 OUTER ITERATIONS 
       AND A TOTAL OF         15 INNER ITERATIONS.
    ------------------------------------------------

 NO OUTPUT CONTROL FOR STRESS PERIOD   64   TIME STEP    9
 
 SOLVING FOR HEAD 
                                                   Max.-Head-Change                         Max.-Flux-Residual
  Residual-Control   Outer-Iter.   Inner-Iter.     Column Row Layer    Maximum-Head-Change  Column Row Layer    Maximum-Flux-Residual          L2-NORM 
          0                 1           7            72   15     2       0.4252583779E+01      70   19    1         0.6963839333E+05      0.5483427660E+06
          0                 2           5            70   62     1      -0.1405651054E+01      62   96    1        -0.1730162386E+05      0.5803395124E+05
          0                 3           2            70   62     1       0.1081875064E+00      62   96    1         0.1698368948E+04      0.1849601654E+04
          0                 4           2            70   62     1       0.1514570204E-02      55  100    3        -0.1268275445E+02      0.1778576177E+02

    ------------------------------------------------
       NWT REQUIRED            4 OUTER ITERATIONS 
       AND A TOTAL OF         16 INNER ITERATIONS.
    ------------------------------------------------

 NO OUTPUT CONTROL FOR STRESS PERIOD   64   TIME STEP   10
 
 SOLVING FOR HEAD 
                                                   Max.-Head-Change                         Max.-Flux-Residual
  Residual-Control   Outer-Iter.   Inner-Iter.     Column Row Layer    Maximum-Head-Change  Column Row Layer    Maximum-Flux-Residual          L2-NORM 
          0                 1           7            33   69     2      -0.2614262291E+01      70   19    1         0.6408392449E+05      0.5389137855E+06
          0                 2           5            73   14     1      -0.7902419182E+00      73   14    1        -0.2658893997E+05      0.6206463072E+05
          0                 3           2            78   74     1       0.5316537103E-01      14   13    2         0.1748183833E+04      0.1915588031E+04
          0                 4           2            14   13     2       0.1014133713E-02      14   13    2         0.1581238422E+03      0.1588984520E+03

    ------------------------------------------------
       NWT REQUIRED            4 OUTER ITERATIONS 
       AND A TOTAL OF         16 INNER ITERATIONS.
    ------------------------------------------------

 NO OUTPUT CONTROL FOR STRESS PERIOD   64   TIME STEP   11
 
 SOLVING FOR HEAD 
                                                   Max.-Head-Change                         Max.-Flux-Residual
  Residual-Control   Outer-Iter.   Inner-Iter.     Column Row Layer    Maximum-Head-Change  Column Row Layer    Maximum-Flux-Residual          L2-NORM 
          0                 1           7            72   15     1       0.2186043146E+01      61   85    2         0.6006253226E+05      0.5288994115E+06
          0                 2           5            87   63     1      -0.1127796628E+01      32   24    2         0.1560338901E+05      0.5983623636E+05
          0                 3           2            87   63     1       0.8763151989E-01      32   24    2        -0.1512042672E+04      0.1802792240E+04
          0                 4           2            87   63     1       0.1160654549E-02      44   32    1        -0.9694035232E+01      0.1355124076E+02

    ------------------------------------------------
       NWT REQUIRED            4 OUTER ITERATIONS 
       AND A TOTAL OF         16 INNER ITERATIONS.
    ------------------------------------------------

 OUTPUT CONTROL FOR STRESS PERIOD   64   TIME STEP   12
    SAVE BUDGET
 UBDSV1 SAVING "         STORAGE" ON UNIT  39 AT TIME STEP 12, STRESS PERIOD  64
 UBDSV2 SAVING "   CONSTANT HEAD" ON UNIT  39 AT TIME STEP 12, STRESS PERIOD  64
 UBDSV1 SAVING "FLOW RIGHT FACE " ON UNIT  39 AT TIME STEP 12, STRESS PERIOD  64
 UBDSV1 SAVING "FLOW FRONT FACE " ON UNIT  39 AT TIME STEP 12, STRESS PERIOD  64
 UBDSV1 SAVING "FLOW LOWER FACE " ON UNIT  39 AT TIME STEP 12, STRESS PERIOD  64
 UBDSV4 SAVING "           WELLS" ON UNIT  39 AT TIME STEP 12, STRESS PERIOD  64
 UBDSV3 SAVING "              ET" ON UNIT  39 AT TIME STEP 12, STRESS PERIOD  64
 UBDSV3 SAVING "        RECHARGE" ON UNIT  39 AT TIME STEP 12, STRESS PERIOD  64
1
  VOLUMETRIC BUDGET FOR ENTIRE MODEL AT END OF TIME STEP   12, STRESS PERIOD  64
  ------------------------------------------------------------------------------

     CUMULATIVE VOLUMES      L**3       RATES FOR THIS TIME STEP      L**3/T
     ------------------                 ------------------------

           IN:                                      IN:
           ---                                      ---
             STORAGE =416715636736.0000               STORAGE =    17212308.0000
       CONSTANT HEAD = 43425202176.0000         CONSTANT HEAD =     2208579.5000
               WELLS = 28650096640.0000                 WELLS =     1225642.0000
                  ET =           0.0000                    ET =           0.0000
            RECHARGE =486591660032.0000              RECHARGE =    27903472.0000

            TOTAL IN =975382642688.0000              TOTAL IN =    48550000.0000

          OUT:                                     OUT:
          ----                                     ----
             STORAGE = 99812442112.0000               STORAGE =     8838587.0000
       CONSTANT HEAD = 70360776704.0000         CONSTANT HEAD =     1689588.8750
               WELLS =782090895360.0000                 WELLS =    37814592.0000
                  ET = 23118096384.0000                    ET =      207239.2188
            RECHARGE =           0.0000              RECHARGE =           0.0000

           TOTAL OUT =975382183936.0000             TOTAL OUT =    48550008.0000

            IN - OUT =      458752.0000              IN - OUT =          -8.0000

 PERCENT DISCREPANCY =           0.00     PERCENT DISCREPANCY =          -0.00






         TIME SUMMARY AT END OF TIME STEP   12 IN STRESS PERIOD   64
                    SECONDS     MINUTES      HOURS       DAYS        YEARS
                    -----------------------------------------------------------
   TIME STEP LENGTH 2.62800E+06  43800.      730.00      30.417     8.32763E-02
 STRESS PERIOD TIME 3.15360E+07 5.25600E+05  8760.0      365.00     0.99932    
         TOTAL TIME 2.01968E+09 3.36613E+07 5.61022E+05  23376.      64.000    
1
1
                            STRESS PERIOD NO.   65, LENGTH =   366.0000    
                            -----------------------------------------------

                              NUMBER OF TIME STEPS =    12

                               MULTIPLIER FOR DELT =     1.000

                            INITIAL TIME STEP SIZE =   30.50000    

   1567 WELLS

 REUSING SURF FROM LAST STRESS PERIOD

 REUSING EVTR FROM LAST STRESS PERIOD

 REUSING EXDP FROM LAST STRESS PERIOD



                           RECHARGE
 READING ON UNIT   16 WITH FORMAT: (15F5.0)            


     63 TIME-VARIANT SPECIFIED-HEAD CELLS
 
 SOLVING FOR HEAD 
                                                   Max.-Head-Change                         Max.-Flux-Residual
  Residual-Control   Outer-Iter.   Inner-Iter.     Column Row Layer    Maximum-Head-Change  Column Row Layer    Maximum-Flux-Residual          L2-NORM 
          0                 1           8            65    2     2      -0.8505075658E+02      30   53    1         0.5609001884E+06      0.1509573297E+07
          0                 2           6            73   14     1      -0.5079736926E+01      30   53    1        -0.5553498216E+05      0.1643107105E+06
          0                 3           3            73   14     1       0.4426881523E+00      73   14    2        -0.4785703824E+04      0.8384857464E+04
          0                 4           2            65    2     2       0.9402681484E-02      58   96    3         0.8872674772E+02      0.1009630391E+03

    ------------------------------------------------
       NWT REQUIRED            4 OUTER ITERATIONS 
       AND A TOTAL OF         19 INNER ITERATIONS.
    ------------------------------------------------

 NO OUTPUT CONTROL FOR STRESS PERIOD   65   TIME STEP    1
 
 SOLVING FOR HEAD 
                                                   Max.-Head-Change                         Max.-Flux-Residual
  Residual-Control   Outer-Iter.   Inner-Iter.     Column Row Layer    Maximum-Head-Change  Column Row Layer    Maximum-Flux-Residual          L2-NORM 
          0                 1           7            30   53     2       0.7427038553E+01      30   53    2         0.2492093160E+06      0.8709223547E+06
          0                 2           6            30   53     2      -0.7271068900E+00      30   53    2        -0.2792136028E+05      0.9281331854E+05
          0                 3           2            25   26     2       0.4256065666E-02      25   26    2         0.5864677279E+03      0.6289755107E+03

    ------------------------------------------------
       NWT REQUIRED            3 OUTER ITERATIONS 
       AND A TOTAL OF         15 INNER ITERATIONS.
    ------------------------------------------------

 NO OUTPUT CONTROL FOR STRESS PERIOD   65   TIME STEP    2
 
 SOLVING FOR HEAD 
                                                   Max.-Head-Change                         Max.-Flux-Residual
  Residual-Control   Outer-Iter.   Inner-Iter.     Column Row Layer    Maximum-Head-Change  Column Row Layer    Maximum-Flux-Residual          L2-NORM 
          0                 1           7            28   49     2      -0.5559796706E+01      30   53    2         0.1532356424E+06      0.7043434762E+06
          0                 2           5            88   67     1      -0.5034403761E+01      54   45    1        -0.1622339456E+05      0.7421671157E+05
          0                 3           3            88   67     1       0.3132979208E+00      23   49    2         0.8040734135E+03      0.1170267465E+04
          0                 4           2            88   67     1       0.8991098767E-02      88   67    1         0.1231742991E+02      0.1432778488E+02

    ------------------------------------------------
       NWT REQUIRED            4 OUTER ITERATIONS 
       AND A TOTAL OF         17 INNER ITERATIONS.
    ------------------------------------------------

 NO OUTPUT CONTROL FOR STRESS PERIOD   65   TIME STEP    3
 
 SOLVING FOR HEAD 
                                                   Max.-Head-Change                         Max.-Flux-Residual
  Residual-Control   Outer-Iter.   Inner-Iter.     Column Row Layer    Maximum-Head-Change  Column Row Layer    Maximum-Flux-Residual          L2-NORM 
          0                 1           7            88   67     1      -0.4528447523E+01      30   53    2         0.9823837153E+05      0.6207360996E+06
          0                 2           5            65    6     2      -0.2305424295E+02      31   24    1        -0.2843848637E+05      0.7617573285E+05
          0                 3           2            65    6     2       0.1377422909E+01      61   84    2        -0.2498956493E+04      0.3060069706E+04
          0                 4           2            65    6     2       0.5258653661E-01      65    6    2         0.3474868871E+02      0.3713649068E+02
          0                 5           2            65    6     2       0.2021804654E-02      65    6    3         0.2880550347E+01      0.3317967708E+01

    ------------------------------------------------
       NWT REQUIRED            5 OUTER ITERATIONS 
       AND A TOTAL OF         18 INNER ITERATIONS.
    ------------------------------------------------

 NO OUTPUT CONTROL FOR STRESS PERIOD   65   TIME STEP    4
 
 SOLVING FOR HEAD 
                                                   Max.-Head-Change                         Max.-Flux-Residual
  Residual-Control   Outer-Iter.   Inner-Iter.     Column Row Layer    Maximum-Head-Change  Column Row Layer    Maximum-Flux-Residual          L2-NORM 
          0                 1           7            65    6     2      -0.7419556020E+01      30   52    2         0.7100146060E+05      0.5726834588E+06
          0                 2           5            69   21     1      -0.2656879790E+01      69   21    1        -0.1328924577E+05      0.6086176574E+05
          0                 3           2            69   21     1       0.2268094891E+00      69   21    1         0.1248972358E+04      0.1554965871E+04
          0                 4           2            69   21     1       0.1253160112E-02      17   10    2         0.2326225401E+02      0.2775728999E+02

    ------------------------------------------------
       NWT REQUIRED            4 OUTER ITERATIONS 
       AND A TOTAL OF         16 INNER ITERATIONS.
    ------------------------------------------------

 NO OUTPUT CONTROL FOR STRESS PERIOD   65   TIME STEP    5
 
 SOLVING FOR HEAD 
                                                   Max.-Head-Change                         Max.-Flux-Residual
  Residual-Control   Outer-Iter.   Inner-Iter.     Column Row Layer    Maximum-Head-Change  Column Row Layer    Maximum-Flux-Residual          L2-NORM 
          0                 1           7            69   21     1      -0.3863308213E+01      62   96    2        -0.5705594219E+05      0.5410980662E+06
          0                 2           5            65    3     2      -0.2225051861E+02      29   23    1        -0.1448005091E+05      0.6111638510E+05
          0                 3           2            65    3     2       0.1152185085E+01      65    3    2         0.5736903048E+03      0.7406319124E+03
          0                 4           2            65    3     2       0.5867829375E-01      65    3    2         0.2909301723E+02      0.3367216661E+02
          0                 5           2            65    3     2       0.2987061947E-02      65    3    2         0.1481519634E+01      0.1926343094E+01

    ------------------------------------------------
       NWT REQUIRED            5 OUTER ITERATIONS 
       AND A TOTAL OF         18 INNER ITERATIONS.
    ------------------------------------------------

 NO OUTPUT CONTROL FOR STRESS PERIOD   65   TIME STEP    6
 
 SOLVING FOR HEAD 
                                                   Max.-Head-Change                         Max.-Flux-Residual
  Residual-Control   Outer-Iter.   Inner-Iter.     Column Row Layer    Maximum-Head-Change  Column Row Layer    Maximum-Flux-Residual          L2-NORM 
          0                 1           6            65    3     2      -0.3768575943E+01      62   96    2        -0.5390611034E+05      0.5186032893E+06
          0                 2           5            65    5     2      -0.2047635431E+02      65    5    2        -0.9822851298E+04      0.5467040632E+05
          0                 3           2            65    5     2       0.1201647853E+01      30   24    2        -0.7963520063E+03      0.1723190161E+04
          0                 4           2            65    5     2       0.5248022326E-01      65    5    2         0.3045019755E+02      0.4116009327E+02
          0                 5           2            65    5     2       0.2287076233E-02      65    5    2         0.1328043917E+01      0.2051047831E+01

    ------------------------------------------------
       NWT REQUIRED            5 OUTER ITERATIONS 
       AND A TOTAL OF         17 INNER ITERATIONS.
    ------------------------------------------------

 NO OUTPUT CONTROL FOR STRESS PERIOD   65   TIME STEP    7
 
 SOLVING FOR HEAD 
                                                   Max.-Head-Change                         Max.-Flux-Residual
  Residual-Control   Outer-Iter.   Inner-Iter.     Column Row Layer    Maximum-Head-Change  Column Row Layer    Maximum-Flux-Residual          L2-NORM 
          0                 1           7            65    5     2      -0.8414806439E+01      62   96    2        -0.5123899804E+05      0.5015517558E+06
          0                 2           5            65    5     2       0.3828594065E+00      34   23    2         0.1247243828E+05      0.5350010755E+05
          0                 3           2            78   83     1       0.2536310516E-01      34   23    2        -0.1190615249E+04      0.1349739224E+04
          0                 4           1            65    5     2       0.6970946078E-03      55  100    3         0.1329248022E+01      0.2332204853E+01

    ------------------------------------------------
       NWT REQUIRED            4 OUTER ITERATIONS 
       AND A TOTAL OF         15 INNER ITERATIONS.
    ------------------------------------------------

 NO OUTPUT CONTROL FOR STRESS PERIOD   65   TIME STEP    8
 
 SOLVING FOR HEAD 
                                                   Max.-Head-Change                         Max.-Flux-Residual
  Residual-Control   Outer-Iter.   Inner-Iter.     Column Row Layer    Maximum-Head-Change  Column Row Layer    Maximum-Flux-Residual          L2-NORM 
          0                 1           7            30   45     2      -0.4918630797E+01      62   95    2        -0.4936778863E+05      0.4884081021E+06
          0                 2           5            30   45     2       0.2129402900E+01      72   15    2         0.1730558876E+05      0.5501336681E+05
          0                 3           3            30   45     1       0.7310864189E+00      30   45    2         0.2092407188E+04      0.3211223348E+04
          0                 4           2            30   45     1       0.8893523486E-02      29   45    2        -0.1876666186E+03      0.1890599067E+03

    ------------------------------------------------
       NWT REQUIRED            4 OUTER ITERATIONS 
       AND A TOTAL OF         17 INNER ITERATIONS.
    ------------------------------------------------

 NO OUTPUT CONTROL FOR STRESS PERIOD   65   TIME STEP    9
 
 SOLVING FOR HEAD 
                                                   Max.-Head-Change                         Max.-Flux-Residual
  Residual-Control   Outer-Iter.   Inner-Iter.     Column Row Layer    Maximum-Head-Change  Column Row Layer    Maximum-Flux-Residual          L2-NORM 
          0                 1           7            63   95     1      -0.1447339108E+01      62   95    2        -0.4836394473E+05      0.4776187525E+06
          0                 2           5            71   96     1      -0.4836090153E+00      62   87    1        -0.1718296542E+05      0.5274188554E+05
          0                 3           2            71   96     1       0.3495646313E-01      68   52    2        -0.2947912489E+03      0.4241596646E+03
          0                 4           1            71   96     1       0.6301497909E-03      55  100    3         0.1191314895E+01      0.2127626519E+01

    ------------------------------------------------
       NWT REQUIRED            4 OUTER ITERATIONS 
       AND A TOTAL OF         15 INNER ITERATIONS.
    ------------------------------------------------

 NO OUTPUT CONTROL FOR STRESS PERIOD   65   TIME STEP   10
 
 SOLVING FOR HEAD 
                                                   Max.-Head-Change                         Max.-Flux-Residual
  Residual-Control   Outer-Iter.   Inner-Iter.     Column Row Layer    Maximum-Head-Change  Column Row Layer    Maximum-Flux-Residual          L2-NORM 
          0                 1           7            63   95     1      -0.1449509725E+01      62   95    2        -0.4744025907E+05      0.4683885420E+06
          0                 2           5            40   71     2      -0.1404051714E+01      28   21    1        -0.9393007546E+04      0.4950090992E+05
          0                 3           2            78   47     1      -0.1592767539E+00      78   47    1        -0.6617998033E+04      0.6627860892E+04
          0                 4           2            78   47     1      -0.1434048525E-01      78   47    1        -0.5957593899E+03      0.5957759748E+03
          0                 5           2            78   47     1      -0.1289388266E-02      78   47    1        -0.5356020607E+02      0.5356098784E+02

    ------------------------------------------------
       NWT REQUIRED            5 OUTER ITERATIONS 
       AND A TOTAL OF         18 INNER ITERATIONS.
    ------------------------------------------------

 NO OUTPUT CONTROL FOR STRESS PERIOD   65   TIME STEP   11

 INTERPOLATION FOR HEAD OBS# 3716, ID 1471-65-336  CHANGED BECAUSE AT LEAST ONE
 NEIGHBORING CELL REQUIRED FOR INTERPOLATION IS DRY OR INACTIVE (OBS2BAS7SE)

 INTERPOLATION FOR HEAD OBS# 5435, ID 846-65-362   CHANGED BECAUSE AT LEAST ONE
 NEIGHBORING CELL REQUIRED FOR INTERPOLATION IS DRY OR INACTIVE (OBS2BAS7SE)
 
 SOLVING FOR HEAD 
                                                   Max.-Head-Change                         Max.-Flux-Residual
  Residual-Control   Outer-Iter.   Inner-Iter.     Column Row Layer    Maximum-Head-Change  Column Row Layer    Maximum-Flux-Residual          L2-NORM 
          0                 1           7            40   71     2      -0.2297268760E+01      62   95    2        -0.4659378575E+05      0.4601378009E+06
          0                 2           5            78   47     1      -0.1944745362E+01      63   96    2         0.1347681666E+05      0.4992510542E+05
          0                 3           2            78   47     1       0.1570569335E+00      62   87    2        -0.7204850194E+03      0.1113521378E+04
          0                 4           2            78   47     1       0.1592700911E-02      78   47    1         0.5404229170E+01      0.5827486777E+01

    ------------------------------------------------
       NWT REQUIRED            4 OUTER ITERATIONS 
       AND A TOTAL OF         16 INNER ITERATIONS.
    ------------------------------------------------

 OUTPUT CONTROL FOR STRESS PERIOD   65   TIME STEP   12
    SAVE BUDGET
 UBDSV1 SAVING "         STORAGE" ON UNIT  39 AT TIME STEP 12, STRESS PERIOD  65
 UBDSV2 SAVING "   CONSTANT HEAD" ON UNIT  39 AT TIME STEP 12, STRESS PERIOD  65
 UBDSV1 SAVING "FLOW RIGHT FACE " ON UNIT  39 AT TIME STEP 12, STRESS PERIOD  65
 UBDSV1 SAVING "FLOW FRONT FACE " ON UNIT  39 AT TIME STEP 12, STRESS PERIOD  65
 UBDSV1 SAVING "FLOW LOWER FACE " ON UNIT  39 AT TIME STEP 12, STRESS PERIOD  65
 UBDSV4 SAVING "           WELLS" ON UNIT  39 AT TIME STEP 12, STRESS PERIOD  65
 UBDSV3 SAVING "              ET" ON UNIT  39 AT TIME STEP 12, STRESS PERIOD  65
 UBDSV3 SAVING "        RECHARGE" ON UNIT  39 AT TIME STEP 12, STRESS PERIOD  65

 INTERPOLATION FOR HEAD OBS#  199, ID 3228-66-19   CHANGED BECAUSE AT LEAST ONE
 NEIGHBORING CELL REQUIRED FOR INTERPOLATION IS DRY OR INACTIVE (OBS2BAS7SE)

 INTERPOLATION FOR HEAD OBS#  640, ID 3014-66-25   CHANGED BECAUSE AT LEAST ONE
 NEIGHBORING CELL REQUIRED FOR INTERPOLATION IS DRY OR INACTIVE (OBS2BAS7SE)

 INTERPOLATION FOR HEAD OBS# 1744, ID 2618-66-28   CHANGED BECAUSE AT LEAST ONE
 NEIGHBORING CELL REQUIRED FOR INTERPOLATION IS DRY OR INACTIVE (OBS2BAS7SE)

 INTERPOLATION FOR HEAD OBS# 1835, ID 1908-66-18   CHANGED BECAUSE AT LEAST ONE
 NEIGHBORING CELL REQUIRED FOR INTERPOLATION IS DRY OR INACTIVE (OBS2BAS7SE)

 INTERPOLATION FOR HEAD OBS# 1870, ID 2606-66-20   CHANGED BECAUSE AT LEAST ONE
 NEIGHBORING CELL REQUIRED FOR INTERPOLATION IS DRY OR INACTIVE (OBS2BAS7SE)

 INTERPOLATION FOR HEAD OBS# 2527, ID 2243-66-19   CHANGED BECAUSE AT LEAST ONE
 NEIGHBORING CELL REQUIRED FOR INTERPOLATION IS DRY OR INACTIVE (OBS2BAS7SE)

 INTERPOLATION FOR HEAD OBS# 3202, ID 2443-66-24   CHANGED BECAUSE AT LEAST ONE
 NEIGHBORING CELL REQUIRED FOR INTERPOLATION IS DRY OR INACTIVE (OBS2BAS7SE)

 INTERPOLATION FOR HEAD OBS# 3777, ID 1405-66-13   CHANGED BECAUSE AT LEAST ONE
 NEIGHBORING CELL REQUIRED FOR INTERPOLATION IS DRY OR INACTIVE (OBS2BAS7SE)

 INTERPOLATION FOR HEAD OBS# 5406, ID 1705-66-25   CHANGED BECAUSE AT LEAST ONE
 NEIGHBORING CELL REQUIRED FOR INTERPOLATION IS DRY OR INACTIVE (OBS2BAS7SE)

 INTERPOLATION FOR HEAD OBS# 6269, ID 987-66-20    CHANGED BECAUSE AT LEAST ONE
 NEIGHBORING CELL REQUIRED FOR INTERPOLATION IS DRY OR INACTIVE (OBS2BAS7SE)
1
  VOLUMETRIC BUDGET FOR ENTIRE MODEL AT END OF TIME STEP   12, STRESS PERIOD  65
  ------------------------------------------------------------------------------

     CUMULATIVE VOLUMES      L**3       RATES FOR THIS TIME STEP      L**3/T
     ------------------                 ------------------------

           IN:                                      IN:
           ---                                      ---
             STORAGE =423014203392.0000               STORAGE =    15969625.0000
       CONSTANT HEAD = 44253872128.0000         CONSTANT HEAD =     2289527.5000
               WELLS = 29098682368.0000                 WELLS =     1225642.0000
                  ET =           0.0000                    ET =           0.0000
            RECHARGE =496796401664.0000              RECHARGE =    27881394.0000

            TOTAL IN =993163083776.0000              TOTAL IN =    47366188.0000

          OUT:                                     OUT:
          ----                                     ----
             STORAGE =103104438272.0000               STORAGE =     7757930.0000
       CONSTANT HEAD = 70974726144.0000         CONSTANT HEAD =     1661327.0000
               WELLS =795862106112.0000                 WELLS =    37627316.0000
                  ET = 23221112832.0000                    ET =      319614.0312
            RECHARGE =           0.0000              RECHARGE =           0.0000

           TOTAL OUT =993162362880.0000             TOTAL OUT =    47366192.0000

            IN - OUT =      720896.0000              IN - OUT =          -4.0000

 PERCENT DISCREPANCY =           0.00     PERCENT DISCREPANCY =          -0.00






         TIME SUMMARY AT END OF TIME STEP   12 IN STRESS PERIOD   65
                    SECONDS     MINUTES      HOURS       DAYS        YEARS
                    -----------------------------------------------------------
   TIME STEP LENGTH 2.63520E+06  43920.      732.00      30.500     8.35044E-02
 STRESS PERIOD TIME 3.16224E+07 5.27040E+05  8784.0      366.00      1.0021    
         TOTAL TIME 2.05130E+09 3.41884E+07 5.69806E+05  23742.      65.002    
1
1
                            STRESS PERIOD NO.   66, LENGTH =   365.0000    
                            -----------------------------------------------

                              NUMBER OF TIME STEPS =    12

                               MULTIPLIER FOR DELT =     1.000

                            INITIAL TIME STEP SIZE =   30.41667    

   1579 WELLS

 REUSING SURF FROM LAST STRESS PERIOD

 REUSING EVTR FROM LAST STRESS PERIOD

 REUSING EXDP FROM LAST STRESS PERIOD



                           RECHARGE
 READING ON UNIT   16 WITH FORMAT: (15F5.0)            


     63 TIME-VARIANT SPECIFIED-HEAD CELLS
 
 SOLVING FOR HEAD 
                                                   Max.-Head-Change                         Max.-Flux-Residual
  Residual-Control   Outer-Iter.   Inner-Iter.     Column Row Layer    Maximum-Head-Change  Column Row Layer    Maximum-Flux-Residual          L2-NORM 
          0                 1           7            30   53     1       0.2796111486E+02      30   53    1         0.5520690001E+06      0.1459674351E+07
          0                 2           6            69   47     1      -0.5180331515E+01      69   47    1        -0.2428785072E+06      0.2877647152E+06
          0                 3           3            69   46     1       0.1181086422E+00      17   16    2         0.2859026758E+04      0.4632181897E+04
          0                 4           2            36   68     2       0.2303357240E-02      17   16    2         0.2572775895E+03      0.2725039078E+03

    ------------------------------------------------
       NWT REQUIRED            4 OUTER ITERATIONS 
       AND A TOTAL OF         18 INNER ITERATIONS.
    ------------------------------------------------

 NO OUTPUT CONTROL FOR STRESS PERIOD   66   TIME STEP    1

 INTERPOLATION FOR HEAD OBS# 1336, ID 2852-66-35   CHANGED BECAUSE AT LEAST ONE
 NEIGHBORING CELL REQUIRED FOR INTERPOLATION IS DRY OR INACTIVE (OBS2BAS7SE)

 INTERPOLATION FOR HEAD OBS# 1405, ID 2840-66-32   CHANGED BECAUSE AT LEAST ONE
 NEIGHBORING CELL REQUIRED FOR INTERPOLATION IS DRY OR INACTIVE (OBS2BAS7SE)

 INTERPOLATION FOR HEAD OBS# 1406, ID 2827-66-32   CHANGED BECAUSE AT LEAST ONE
 NEIGHBORING CELL REQUIRED FOR INTERPOLATION IS DRY OR INACTIVE (OBS2BAS7SE)

 INTERPOLATION FOR HEAD OBS# 1659, ID 2303-66-47   CHANGED BECAUSE AT LEAST ONE
 NEIGHBORING CELL REQUIRED FOR INTERPOLATION IS DRY OR INACTIVE (OBS2BAS7SE)

 INTERPOLATION FOR HEAD OBS# 3614, ID 1370-66-56   CHANGED BECAUSE AT LEAST ONE
 NEIGHBORING CELL REQUIRED FOR INTERPOLATION IS DRY OR INACTIVE (OBS2BAS7SE)
 
 SOLVING FOR HEAD 
                                                   Max.-Head-Change                         Max.-Flux-Residual
  Residual-Control   Outer-Iter.   Inner-Iter.     Column Row Layer    Maximum-Head-Change  Column Row Layer    Maximum-Flux-Residual          L2-NORM 
          0                 1           7            30   53     2       0.9700551274E+01      30   53    2         0.3415549862E+06      0.9447671537E+06
          0                 2           6            30   53     2      -0.9422784639E+00      30   53    2        -0.3864905928E+05      0.1009086302E+06
          0                 3           3            29   51     3      -0.1920313741E-01      43   31    1         0.1847448568E+04      0.2743489296E+04
          0                 4           1            42   30     2       0.7767067364E-03      42   30    2         0.1220914594E+03      0.1483635845E+03

    ------------------------------------------------
       NWT REQUIRED            4 OUTER ITERATIONS 
       AND A TOTAL OF         17 INNER ITERATIONS.
    ------------------------------------------------

 NO OUTPUT CONTROL FOR STRESS PERIOD   66   TIME STEP    2

 INTERPOLATION FOR HEAD OBS# 7536, ID 269-66-61    CHANGED BECAUSE AT LEAST ONE
 NEIGHBORING CELL REQUIRED FOR INTERPOLATION IS DRY OR INACTIVE (OBS2BAS7SE)
 
 SOLVING FOR HEAD 
                                                   Max.-Head-Change                         Max.-Flux-Residual
  Residual-Control   Outer-Iter.   Inner-Iter.     Column Row Layer    Maximum-Head-Change  Column Row Layer    Maximum-Flux-Residual          L2-NORM 
          0                 1           7            30   53     2       0.6130703243E+01      30   53    2         0.2009379250E+06      0.7709855481E+06
          0                 2           6            30   53     1      -0.2719271386E+01      30   53    1        -0.1300369020E+06      0.1563346324E+06
          0                 3           3            29   22     2       0.1651316992E-01      29   22    2         0.3023963994E+04      0.4009451702E+04
          0                 4           2            29   22     2       0.1484094443E-02      29   22    2         0.2722995721E+03      0.2806225374E+03

    ------------------------------------------------
       NWT REQUIRED            4 OUTER ITERATIONS 
       AND A TOTAL OF         18 INNER ITERATIONS.
    ------------------------------------------------

 NO OUTPUT CONTROL FOR STRESS PERIOD   66   TIME STEP    3
 
 SOLVING FOR HEAD 
                                                   Max.-Head-Change                         Max.-Flux-Residual
  Residual-Control   Outer-Iter.   Inner-Iter.     Column Row Layer    Maximum-Head-Change  Column Row Layer    Maximum-Flux-Residual          L2-NORM 
          0                 1           7            29   53     1       0.4382087085E+01      30   52    2         0.1223956498E+06      0.6794218561E+06
          0                 2           6            28   49     2       0.6263076147E+01      28   49    2         0.1352260503E+06      0.1569204505E+06
          0                 3           5            28   49     2      -0.5421774549E+01      28   49    2        -0.1291918050E+06      0.1292423836E+06
          0                 4           4            28   49     2       0.1664519189E+01      28   49    2         0.4336944942E+05      0.4338720725E+05
          0                 5           4            28   49     2      -0.1672818951E+01      28   49    2        -0.4785598241E+05      0.4785664059E+05
          0                 6           4            28   49     2       0.1412366969E+01      28   49    2         0.4420485625E+05      0.4420601732E+05
          0                 7           4            28   49     2      -0.1232898293E+01      28   49    2        -0.4223073947E+05      0.4223131165E+05
          0                 8           4            28   49     2       0.7279476491E+00      28   49    2         0.2720656849E+05      0.2720724133E+05
          0                 9           4            28   49     2      -0.6258481326E+00      28   49    2        -0.2551064935E+05      0.2551077073E+05
          0                10           4            28   49     2       0.4090151973E+00      28   49    2         0.1813835344E+05      0.1813859362E+05
                                                   Max.-Head-Change                         Max.-Flux-Residual
  Residual-Control   Outer-Iter.   Inner-Iter.     Column Row Layer    Maximum-Head-Change  Column Row Layer    Maximum-Flux-Residual          L2-NORM 
          0                11           3            28   49     2      -0.2692651914E+00      28   49    2        -0.1297671972E+05      0.1297677187E+05
          0                12           3            28   49     2       0.1247051856E+00      28   49    2         0.6515854241E+04      0.6515936979E+04
          0                13           3            28   49     2      -0.5332720699E-01      28   49    2        -0.3014919851E+04      0.3014924342E+04
          0                14           2            28   49     2       0.1569494542E-01      28   49    2         0.9588258216E+03      0.9588496895E+03
          0                15           2            28   49     2      -0.3449043232E-02      28   49    2        -0.2268981557E+03      0.2269028709E+03

    ------------------------------------------------
       NWT REQUIRED           15 OUTER ITERATIONS 
       AND A TOTAL OF         59 INNER ITERATIONS.
    ------------------------------------------------

 NO OUTPUT CONTROL FOR STRESS PERIOD   66   TIME STEP    4
 
 SOLVING FOR HEAD 
                                                   Max.-Head-Change                         Max.-Flux-Residual
  Residual-Control   Outer-Iter.   Inner-Iter.     Column Row Layer    Maximum-Head-Change  Column Row Layer    Maximum-Flux-Residual          L2-NORM 
          0                 1           7            86   64     1      -0.4392695065E+01      30   52    2         0.8968806232E+05      0.6285500208E+06
          0                 2           6            28   49     2       0.5740667413E+01      28   49    2         0.1240905792E+06      0.1409616083E+06
          0                 3           5            28   49     2      -0.6039710499E+01      28   49    2        -0.1437482303E+06      0.1437628248E+06
          0                 4           5            28   49     2       0.6102714758E+01      28   49    2         0.1588266710E+06      0.1588354570E+06
          0                 5           5            28   49     2      -0.5065678089E+01      28   49    2        -0.1450934172E+06      0.1450999439E+06
          0                 6           4            28   49     2       0.1291223633E+01      28   49    2         0.4031118233E+05      0.4032691060E+05
          0                 7           4            28   49     2      -0.1781793311E+01      28   49    2        -0.6101383470E+05      0.6101386647E+05
          0                 8           5            28   49     2       0.2547291854E+01      28   49    2         0.9512232885E+05      0.9512332073E+05
          0                 9           5            28   49     2      -0.1963883766E+01      28   49    2        -0.8006072704E+05      0.8006201248E+05
          0                10           4            28   49     2       0.6918337944E+00      28   49    2         0.3064966740E+05      0.3065103637E+05
                                                   Max.-Head-Change                         Max.-Flux-Residual
  Residual-Control   Outer-Iter.   Inner-Iter.     Column Row Layer    Maximum-Head-Change  Column Row Layer    Maximum-Flux-Residual          L2-NORM 
          0                11           4            28   49     2      -0.6548993314E+00      28   49    2        -0.3155265187E+05      0.3155266515E+05
          0                12           4            28   49     2       0.5145747153E+00      28   49    2         0.2686252860E+05      0.2686288377E+05
          0                13           4            28   49     2      -0.3660989400E+00      28   49    2        -0.2069085335E+05      0.2069089096E+05
          0                14           3            28   49     2       0.1976132305E+00      28   49    2         0.1205586721E+05      0.1205600444E+05
          0                15           3            28   49     2      -0.9662477642E-01      28   49    2        -0.6353224412E+04      0.6353228044E+04
          0                16           3            28   49     2       0.3467011882E-01      28   49    2         0.2448966417E+04      0.2449017459E+04
          0                17           2            28   49     2      -0.9951789511E-02      28   49    2        -0.7547475998E+03      0.7547573939E+03

    ------------------------------------------------
       NWT REQUIRED           17 OUTER ITERATIONS 
       AND A TOTAL OF         73 INNER ITERATIONS.
    ------------------------------------------------

 NO OUTPUT CONTROL FOR STRESS PERIOD   66   TIME STEP    5
 
 SOLVING FOR HEAD 
                                                   Max.-Head-Change                         Max.-Flux-Residual
  Residual-Control   Outer-Iter.   Inner-Iter.     Column Row Layer    Maximum-Head-Change  Column Row Layer    Maximum-Flux-Residual          L2-NORM 
          0                 1           7            29   53     1       0.3209731098E+01      29   53    2         0.7545655306E+05      0.5959731031E+06
          0                 2           6            86   66     1      -0.3115048659E+01      28   19    1        -0.2181297965E+05      0.6699257914E+05
          0                 3           4            28   49     2      -0.1548250758E+01      28   49    2        -0.3681482366E+05      0.3685606222E+05
          0                 4           5            28   49     2       0.4625152995E+01      28   49    2         0.1205509293E+06      0.1205516757E+06
          0                 5           5            28   49     2      -0.4293716457E+01      28   49    2        -0.1229615421E+06      0.1229669053E+06
          0                 6           5            28   49     2       0.2621610223E+01      28   49    2         0.8196953642E+05      0.8197540020E+05
          0                 7           5            28   49     2      -0.2533847880E+01      28   49    2        -0.8684075294E+05      0.8684179691E+05
          0                 8           5            28   49     2       0.1927958014E+01      28   49    2         0.7202191656E+05      0.7202387455E+05
          0                 9           5            28   49     2      -0.1808208759E+01      28   49    2        -0.7375064143E+05      0.7375117365E+05
          0                10           4            28   49     2       0.1321988669E+01      28   49    2         0.5860880703E+05      0.5860976562E+05
                                                   Max.-Head-Change                         Max.-Flux-Residual
  Residual-Control   Outer-Iter.   Inner-Iter.     Column Row Layer    Maximum-Head-Change  Column Row Layer    Maximum-Flux-Residual          L2-NORM 
          0                11           4            28   49     2      -0.1170694243E+01      28   49    2        -0.5644373081E+05      0.5644395173E+05
          0                12           4            28   49     2       0.8057457272E+00      28   49    2         0.4208485309E+05      0.4208532155E+05
          0                13           4            28   49     2      -0.5826413602E+00      28   49    2        -0.3295298015E+05      0.3295306519E+05
          0                14           4            28   49     2       0.3085913706E+00      28   49    2         0.1883415159E+05      0.1883435611E+05
          0                15           3            28   49     2      -0.1590795836E+00      28   49    2        -0.1046668061E+05      0.1046668906E+05
          0                16           3            28   49     2       0.5903829649E-01      28   49    2         0.4172801159E+04      0.4172878741E+04
          0                17           3            28   49     2      -0.1823206212E-01      28   49    2        -0.1382845341E+04      0.1382855205E+04
          0                18           2            28   49     2       0.3929181201E-02      28   49    2         0.3182433700E+03      0.3183236065E+03

    ------------------------------------------------
       NWT REQUIRED           18 OUTER ITERATIONS 
       AND A TOTAL OF         78 INNER ITERATIONS.
    ------------------------------------------------

 NO OUTPUT CONTROL FOR STRESS PERIOD   66   TIME STEP    6
 
 SOLVING FOR HEAD 
                                                   Max.-Head-Change                         Max.-Flux-Residual
  Residual-Control   Outer-Iter.   Inner-Iter.     Column Row Layer    Maximum-Head-Change  Column Row Layer    Maximum-Flux-Residual          L2-NORM 
          0                 1           7            29   53     1       0.2741634409E+01      29   53    2         0.6445785817E+05      0.5725927861E+06
          0                 2           6            28   49     2      -0.4519003521E+00      29   19    1        -0.1394845527E+05      0.6422638453E+05
          0                 3           4            28   49     2       0.1424818361E+01      28   49    2         0.3391063973E+05      0.3392272856E+05
          0                 4           5            28   49     2      -0.2604308522E+01      28   49    2        -0.6808802464E+05      0.6808824742E+05
          0                 5           5            28   49     2       0.5884978311E+01      28   49    2         0.1684385640E+06      0.1684388407E+06
          0                 6           5            28   49     2      -0.4431645928E+01      28   49    2        -0.1393949524E+06      0.1393962865E+06
          0                 7           3            28   49     2       0.1893564345E+00      28   49    2         0.6507035641E+04      0.6519614014E+04
          0                 8           3            28   49     1      -0.2877429179E+00      28   49    2        -0.1077083730E+05      0.1077135871E+05
          0                 9           3            28   49     2       0.3926981817E+00      28   49    2         0.1603807842E+05      0.1603823505E+05
          0                10           4            28   49     2      -0.4424001857E+00      28   49    2        -0.1966050951E+05      0.1966051526E+05
                                                   Max.-Head-Change                         Max.-Flux-Residual
  Residual-Control   Outer-Iter.   Inner-Iter.     Column Row Layer    Maximum-Head-Change  Column Row Layer    Maximum-Flux-Residual          L2-NORM 
          0                11           4            28   49     2       0.4348898691E+00      28   49    2         0.2099205527E+05      0.2099209716E+05
          0                12           4            28   49     2      -0.3637913709E+00      28   49    2        -0.1904372745E+05      0.1904374349E+05
          0                13           3            28   49     2       0.2459088231E+00      28   49    2         0.1392852815E+05      0.1392854942E+05
          0                14           3            28   49     2      -0.1470408456E+00      28   49    2        -0.8994029578E+04      0.8994036004E+04
          0                15           3            28   49     2       0.6703604051E-01      28   49    2         0.4417022563E+04      0.4417029668E+04
          0                16           3            28   49     2      -0.2557565369E-01      28   49    2        -0.1811301608E+04      0.1811302340E+04
          0                17           2            28   49     2       0.7147141124E-02      28   49    2         0.5430208792E+03      0.5430231347E+03

    ------------------------------------------------
       NWT REQUIRED           17 OUTER ITERATIONS 
       AND A TOTAL OF         67 INNER ITERATIONS.
    ------------------------------------------------

 NO OUTPUT CONTROL FOR STRESS PERIOD   66   TIME STEP    7
 
 SOLVING FOR HEAD 
                                                   Max.-Head-Change                         Max.-Flux-Residual
  Residual-Control   Outer-Iter.   Inner-Iter.     Column Row Layer    Maximum-Head-Change  Column Row Layer    Maximum-Flux-Residual          L2-NORM 
          0                 1           7            29   53     1       0.2356818010E+01      29   53    2         0.5514522977E+05      0.5535319281E+06
          0                 2           6            28   49     2      -0.6894505297E+00      29   19    2         0.1476375752E+05      0.6093373158E+05
          0                 3           4            28   49     2       0.2164354359E+01      28   49    2         0.5158708775E+05      0.5163661777E+05
          0                 4           5            28   49     2      -0.2944795424E+01      28   49    2        -0.7714636394E+05      0.7714691081E+05
          0                 5           5            28   49     2       0.4914118982E+01      28   49    2         0.1408996405E+06      0.1409000563E+06
          0                 6           5            28   49     2      -0.3807999908E+01      28   49    2        -0.1199205718E+06      0.1199216138E+06
          0                 7           4            28   49     2       0.5222975763E+00      28   49    2         0.1795384456E+05      0.1795724004E+05
          0                 8           4            28   49     2      -0.7288596482E+00      28   49    2        -0.2734291737E+05      0.2734296805E+05
          0                 9           4            28   49     2       0.9514503722E+00      28   49    2         0.3890594063E+05      0.3890607182E+05
          0                10           4            28   49     2      -0.9517184789E+00      28   49    2        -0.4237366820E+05      0.4237371435E+05
                                                   Max.-Head-Change                         Max.-Flux-Residual
  Residual-Control   Outer-Iter.   Inner-Iter.     Column Row Layer    Maximum-Head-Change  Column Row Layer    Maximum-Flux-Residual          L2-NORM 
          0                11           4            28   49     2       0.8053333732E+00      28   49    2         0.3893234000E+05      0.3893241372E+05
          0                12           4            28   49     2      -0.6258484735E+00      28   49    2        -0.3281937238E+05      0.3281940540E+05
          0                13           4            28   49     2       0.3637731160E+00      28   49    2         0.2063449668E+05      0.2063453616E+05
          0                14           3            28   49     2      -0.2072045606E+00      28   49    2        -0.1269463639E+05      0.1269464394E+05
          0                15           3            28   49     2       0.8499507836E-01      28   49    2         0.5609782117E+04      0.5609796993E+04
          0                16           3            28   49     2      -0.3004662626E-01      28   49    2        -0.2131197077E+04      0.2131199747E+04
          0                17           2            28   49     2       0.7484872360E-02      28   49    2         0.5697629409E+03      0.5697786335E+03

    ------------------------------------------------
       NWT REQUIRED           17 OUTER ITERATIONS 
       AND A TOTAL OF         71 INNER ITERATIONS.
    ------------------------------------------------

 NO OUTPUT CONTROL FOR STRESS PERIOD   66   TIME STEP    8
 
 SOLVING FOR HEAD 
                                                   Max.-Head-Change                         Max.-Flux-Residual
  Residual-Control   Outer-Iter.   Inner-Iter.     Column Row Layer    Maximum-Head-Change  Column Row Layer    Maximum-Flux-Residual          L2-NORM 
          0                 1           7            22   44     2      -0.3156218945E+01      29   53    2         0.4746036346E+05      0.5378387526E+06
          0                 2           6            28   49     2      -0.7623907495E+00      28   49    2        -0.1613553805E+05      0.6007112481E+05
          0                 3           4            28   49     2       0.2324435565E+01      28   49    2         0.5550030266E+05      0.5552890267E+05
          0                 4           5            28   49     2      -0.2885605240E+01      28   49    2        -0.7574053803E+05      0.7574381221E+05
          0                 5           5            28   49     2       0.4143355149E+01      28   49    2         0.1190311958E+06      0.1190334261E+06
          0                 6           5            28   49     2      -0.3269214756E+01      28   49    2        -0.1031061436E+06      0.1031089277E+06
          0                 7           4            28   49     2       0.6744675291E+00      28   49    2         0.2322165094E+05      0.2323262122E+05
          0                 8           4            28   49     2      -0.8701409842E+00      28   49    2        -0.3270627733E+05      0.3271267809E+05
          0                 9           4            28   49     2       0.1050829090E+01      28   49    2         0.4304602505E+05      0.4305099819E+05
          0                10           4            28   49     2      -0.9745771125E+00      28   49    2        -0.4347230171E+05      0.4347714677E+05
                                                   Max.-Head-Change                         Max.-Flux-Residual
  Residual-Control   Outer-Iter.   Inner-Iter.     Column Row Layer    Maximum-Head-Change  Column Row Layer    Maximum-Flux-Residual          L2-NORM 
          0                11           4            28   49     2       0.7260798556E+00      28   49    2         0.3516550844E+05      0.3517149155E+05
          0                12           4            28   49     2      -0.5358965248E+00      28   49    2        -0.2815255801E+05      0.2815994590E+05
          0                13           3            28   49     2       0.2880841955E+00      28   49    2         0.1637360052E+05      0.1638626327E+05
          0                14           3            28   49     2      -0.1516439818E+00      28   49    2        -0.9307684974E+04      0.9329833884E+04
          0                15           3            28   49     2       0.5676411710E-01      28   49    2         0.3753219422E+04      0.3807694517E+04
          0                16           2            28   49     2      -0.1773300605E-01      28   49    2        -0.1260964872E+04      0.1414528200E+04
          0                17           2            28   49     2       0.3800399573E-02      14   21    3        -0.5245421246E+03      0.7028096372E+03

    ------------------------------------------------
       NWT REQUIRED           17 OUTER ITERATIONS 
       AND A TOTAL OF         69 INNER ITERATIONS.
    ------------------------------------------------

 NO OUTPUT CONTROL FOR STRESS PERIOD   66   TIME STEP    9
 
 SOLVING FOR HEAD 
                                                   Max.-Head-Change                         Max.-Flux-Residual
  Residual-Control   Outer-Iter.   Inner-Iter.     Column Row Layer    Maximum-Head-Change  Column Row Layer    Maximum-Flux-Residual          L2-NORM 
          0                 1           7            29   53     1       0.1788994945E+01      29   53    2         0.4119080271E+05      0.5247907786E+06
          0                 2           6            28   49     2      -0.7823085707E+00      28   49    2        -0.1657619901E+05      0.5950126672E+05
          0                 3           4            28   49     2       0.2286661569E+01      28   49    2         0.5470281701E+05      0.5497958982E+05
          0                 4           5            28   49     2      -0.2688349417E+01      28   49    2        -0.7069886502E+05      0.7089383998E+05
          0                 5           5            28   49     2       0.3447820893E+01      28   49    2         0.9924847872E+05      0.9938726425E+05
          0                 6           5            28   49     2      -0.2762072459E+01      28   49    2        -0.8725018005E+05      0.8740770433E+05
          0                 7           4            28   49     2       0.7480727097E+00      28   49    2         0.2580326988E+05      0.2632931946E+05
          0                 8           4            28   49     2      -0.8926193239E+00      28   49    2        -0.3361769969E+05      0.3401488214E+05
          0                 9           4            28   49     2       0.9788352045E+00      28   49    2         0.4017467356E+05      0.4050709156E+05
          0                10           4            28   49     2      -0.8602072105E+00      28   49    2        -0.3844366309E+05      0.3879027014E+05
                                                   Max.-Head-Change                         Max.-Flux-Residual
  Residual-Control   Outer-Iter.   Inner-Iter.     Column Row Layer    Maximum-Head-Change  Column Row Layer    Maximum-Flux-Residual          L2-NORM 
          0                11           4            28   49     2       0.5835475751E+00      28   49    2         0.2831799890E+05      0.2835268542E+05
          0                12           4            28   49     2      -0.4049772126E+00      28   49    2        -0.2131496038E+05      0.2131501916E+05
          0                13           3            28   49     2       0.2014452974E+00      28   49    2         0.1147153748E+05      0.1147157101E+05
          0                14           3            28   49     2      -0.9542808850E-01      28   49    2        -0.5868423593E+04      0.5868425324E+04
          0                15           3            28   49     2       0.3183821865E-01      28   49    2         0.2109159654E+04      0.2109171453E+04
          0                16           2            28   49     2      -0.8441876215E-02      28   49    2        -0.6014382389E+03      0.6014416329E+03

    ------------------------------------------------
       NWT REQUIRED           16 OUTER ITERATIONS 
       AND A TOTAL OF         67 INNER ITERATIONS.
    ------------------------------------------------

 NO OUTPUT CONTROL FOR STRESS PERIOD   66   TIME STEP   10
 
 SOLVING FOR HEAD 
                                                   Max.-Head-Change                         Max.-Flux-Residual
  Residual-Control   Outer-Iter.   Inner-Iter.     Column Row Layer    Maximum-Head-Change  Column Row Layer    Maximum-Flux-Residual          L2-NORM 
          0                 1           7            60   92     2      -0.2472278401E+01      29   53    2         0.3608604066E+05      0.5132175065E+06
          0                 2           6            37   71     2      -0.1753985101E+01      28   49    2        -0.1653210509E+05      0.5495252531E+05
          0                 3           4            28   49     2       0.2158700958E+01      28   49    2         0.5174195412E+05      0.5804192025E+05
          0                 4           5            28   49     2      -0.2429144578E+01      28   49    2        -0.6400360104E+05      0.6404797215E+05
          0                 5           5            28   49     2       0.2802282882E+01      28   49    2         0.8083091798E+05      0.8083162883E+05
          0                 6           5            28   49     2      -0.2280255888E+01      28   49    2        -0.7214879395E+05      0.7214920692E+05
          0                 7           4            28   49     2       0.7728511808E+00      28   49    2         0.2670805967E+05      0.2670880006E+05
          0                 8           4            28   49     2      -0.8510089724E+00      28   49    2        -0.3211411272E+05      0.3211411959E+05
          0                 9           4            28   49     2       0.8325647094E+00      28   49    2         0.3423889651E+05      0.3423900339E+05
          0                10           4            28   49     2      -0.6948636319E+00      28   49    2        -0.3111304328E+05      0.3111307728E+05
                                                   Max.-Head-Change                         Max.-Flux-Residual
  Residual-Control   Outer-Iter.   Inner-Iter.     Column Row Layer    Maximum-Head-Change  Column Row Layer    Maximum-Flux-Residual          L2-NORM 
          0                11           4            28   49     2       0.4343746654E+00      28   49    2         0.2112116237E+05      0.2112122174E+05
          0                12           3            28   49     2      -0.2775592049E+00      28   49    2        -0.1463840024E+05      0.1463840897E+05
          0                13           3            28   49     2       0.1253557537E+00      28   49    2         0.7153126982E+04      0.7153153249E+04
          0                14           3            28   49     2      -0.5168492809E-01      28   49    2        -0.3184290729E+04      0.3184291554E+04
          0                15           2            28   49     2       0.1480412141E-01      28   49    2         0.9834380378E+03      0.9834489834E+03
          0                16           2            28   49     2      -0.3142697439E-02      28   49    2        -0.2242555023E+03      0.2242616010E+03

    ------------------------------------------------
       NWT REQUIRED           16 OUTER ITERATIONS 
       AND A TOTAL OF         65 INNER ITERATIONS.
    ------------------------------------------------

 NO OUTPUT CONTROL FOR STRESS PERIOD   66   TIME STEP   11
 
 SOLVING FOR HEAD 
                                                   Max.-Head-Change                         Max.-Flux-Residual
  Residual-Control   Outer-Iter.   Inner-Iter.     Column Row Layer    Maximum-Head-Change  Column Row Layer    Maximum-Flux-Residual          L2-NORM 
          0                 1           7            29   53     1       0.1410952440E+01      32   24    1         0.3202354842E+05      0.5034539774E+06
          0                 2           6            61   36     2      -0.1169247010E+02      28   49    2        -0.1553852449E+05      0.5578529975E+05
          0                 3           4            61   36     2       0.5848586359E+01      28   49    2         0.4542173190E+05      0.4608927294E+05
          0                 4           4            28   49     2      -0.2080005820E+01      28   49    2        -0.5492002766E+05      0.5492111719E+05
          0                 5           5            28   49     2       0.2244547432E+01      28   49    2         0.6489125495E+05      0.6489132956E+05
          0                 6           4            28   49     2      -0.1845825812E+01      28   49    2        -0.5851661133E+05      0.5851669370E+05
          0                 7           4            28   49     2       0.7307996689E+00      28   49    2         0.2531512676E+05      0.2531522170E+05
          0                 8           4            28   49     2      -0.7437901238E+00      28   49    2        -0.2812450574E+05      0.2812451018E+05
          0                 9           4            28   49     2       0.6429435467E+00      28   49    2         0.2649850082E+05      0.2649851915E+05
          0                10           4            28   49     2      -0.5038850688E+00      28   49    2        -0.2260661717E+05      0.2260662404E+05
                                                   Max.-Head-Change                         Max.-Flux-Residual
  Residual-Control   Outer-Iter.   Inner-Iter.     Column Row Layer    Maximum-Head-Change  Column Row Layer    Maximum-Flux-Residual          L2-NORM 
          0                11           3            28   49     2       0.2890298444E+00      28   49    2         0.1408642037E+05      0.1408642894E+05
          0                12           3            28   49     2      -0.1646853212E+00      28   49    2        -0.8703026942E+04      0.8703028856E+04
          0                13           3            28   49     2       0.6562435772E-01      28   49    2         0.3752831567E+04      0.3752834103E+04
          0                14           3            28   49     2      -0.2245095271E-01      28   49    2        -0.1385930279E+04      0.1385930600E+04
          0                15           2            28   49     2       0.5204213291E-02      28   49    2         0.3465499401E+03      0.3465509903E+03

    ------------------------------------------------
       NWT REQUIRED           15 OUTER ITERATIONS 
       AND A TOTAL OF         60 INNER ITERATIONS.
    ------------------------------------------------

 OUTPUT CONTROL FOR STRESS PERIOD   66   TIME STEP   12
    SAVE BUDGET
    SAVE HEAD FOR LAYERS:   1  2  3
 UBDSV1 SAVING "         STORAGE" ON UNIT  39 AT TIME STEP 12, STRESS PERIOD  66
 UBDSV2 SAVING "   CONSTANT HEAD" ON UNIT  39 AT TIME STEP 12, STRESS PERIOD  66
 UBDSV1 SAVING "FLOW RIGHT FACE " ON UNIT  39 AT TIME STEP 12, STRESS PERIOD  66
 UBDSV1 SAVING "FLOW FRONT FACE " ON UNIT  39 AT TIME STEP 12, STRESS PERIOD  66
 UBDSV1 SAVING "FLOW LOWER FACE " ON UNIT  39 AT TIME STEP 12, STRESS PERIOD  66
 UBDSV4 SAVING "           WELLS" ON UNIT  39 AT TIME STEP 12, STRESS PERIOD  66
 UBDSV3 SAVING "              ET" ON UNIT  39 AT TIME STEP 12, STRESS PERIOD  66
 UBDSV3 SAVING "        RECHARGE" ON UNIT  39 AT TIME STEP 12, STRESS PERIOD  66

 HEAD WILL BE SAVED ON UNIT   31 AT END OF TIME STEP   12, STRESS PERIOD   66
1
  VOLUMETRIC BUDGET FOR ENTIRE MODEL AT END OF TIME STEP   12, STRESS PERIOD  66
  ------------------------------------------------------------------------------

     CUMULATIVE VOLUMES      L**3       RATES FOR THIS TIME STEP      L**3/T
     ------------------                 ------------------------

           IN:                                      IN:
           ---                                      ---
             STORAGE =427771265024.0000               STORAGE =    11849821.0000
       CONSTANT HEAD = 45127524352.0000         CONSTANT HEAD =     2429908.0000
               WELLS = 29546039296.0000                 WELLS =     1225642.0000
                  ET =           0.0000                    ET =           0.0000
            RECHARGE =509429645312.0000              RECHARGE =    34611836.0000

            TOTAL IN =       1.0119E+12              TOTAL IN =    50117208.0000

          OUT:                                     OUT:
          ----                                     ----
             STORAGE =108238266368.0000               STORAGE =    12804327.0000
       CONSTANT HEAD = 71614889984.0000         CONSTANT HEAD =     1784817.8750
               WELLS =808643133440.0000                 WELLS =    35033452.0000
                  ET = 23377479680.0000                    ET =      494665.4688
            RECHARGE =           0.0000              RECHARGE =           0.0000

           TOTAL OUT =       1.0119E+12             TOTAL OUT =    50117260.0000

            IN - OUT =      720896.0000              IN - OUT =         -52.0000

 PERCENT DISCREPANCY =           0.00     PERCENT DISCREPANCY =          -0.00






         TIME SUMMARY AT END OF TIME STEP   12 IN STRESS PERIOD   66
                    SECONDS     MINUTES      HOURS       DAYS        YEARS
                    -----------------------------------------------------------
   TIME STEP LENGTH 2.62800E+06  43800.      730.00      30.417     8.32763E-02
 STRESS PERIOD TIME 3.15360E+07 5.25600E+05  8760.0      365.00     0.99932    
         TOTAL TIME 2.08284E+09 3.47140E+07 5.78566E+05  24107.      66.001    
1
1
                            STRESS PERIOD NO.   67, LENGTH =   365.0000    
                            -----------------------------------------------

                              NUMBER OF TIME STEPS =    12

                               MULTIPLIER FOR DELT =     1.000

                            INITIAL TIME STEP SIZE =   30.41667    

   1596 WELLS

 REUSING SURF FROM LAST STRESS PERIOD

 REUSING EVTR FROM LAST STRESS PERIOD

 REUSING EXDP FROM LAST STRESS PERIOD



                           RECHARGE
 READING ON UNIT   16 WITH FORMAT: (15F5.0)            


     63 TIME-VARIANT SPECIFIED-HEAD CELLS
 
 SOLVING FOR HEAD 
                                                   Max.-Head-Change                         Max.-Flux-Residual
  Residual-Control   Outer-Iter.   Inner-Iter.     Column Row Layer    Maximum-Head-Change  Column Row Layer    Maximum-Flux-Residual          L2-NORM 
          0                 1           7            92   77     2       0.9187988519E+02      28   52    3        -0.3822481695E+06      0.1267567655E+07
          0                 2           6            92   77     2       0.2984005493E+02      88   67    1        -0.6748271880E+06      0.7553979706E+06
          0                 3           2            92   77     2      -0.2258751738E+02      92   77    2        -0.6822153859E+06      0.6830656279E+06
          0                 4           2            91   77     2       0.5841962738E+01      92   77    2        -0.7111573599E+04      0.8643907351E+04
          0                 5           2            91   77     2       0.9337743532E+00      91   77    2         0.3981588756E+03      0.5381250270E+03
          0                 6           2            91   77     2       0.1452046554E+00      91   77    2         0.6169904932E+02      0.7673391852E+02
          0                 7           2            91   77     2       0.2258082346E-01      91   77    2         0.9567202043E+01      0.1309462916E+02
          0                 8           2            91   77     2       0.3509832398E-02      91   77    3         0.1885357402E+01      0.2416629511E+01

    ------------------------------------------------
       NWT REQUIRED            8 OUTER ITERATIONS 
       AND A TOTAL OF         25 INNER ITERATIONS.
    ------------------------------------------------

 NO OUTPUT CONTROL FOR STRESS PERIOD   67   TIME STEP    1
 
 SOLVING FOR HEAD 
                                                   Max.-Head-Change                         Max.-Flux-Residual
  Residual-Control   Outer-Iter.   Inner-Iter.     Column Row Layer    Maximum-Head-Change  Column Row Layer    Maximum-Flux-Residual          L2-NORM 
          0                 1           7            28   50     2       0.1063227999E+02      30   52    2         0.2554656989E+06      0.8510306771E+06
          0                 2           6            30   54     1      -0.1325608522E+01      30   54    1        -0.6981148908E+05      0.1145636866E+06
          0                 3           2            73   63     1       0.9270229285E-01      63   96    1         0.1361324402E+04      0.1573145252E+04
          0                 4           2            41   75     2       0.9672308336E-03      43   31    1         0.1305361772E+02      0.1891403856E+02

    ------------------------------------------------
       NWT REQUIRED            4 OUTER ITERATIONS 
       AND A TOTAL OF         17 INNER ITERATIONS.
    ------------------------------------------------

 NO OUTPUT CONTROL FOR STRESS PERIOD   67   TIME STEP    2
 
 SOLVING FOR HEAD 
                                                   Max.-Head-Change                         Max.-Flux-Residual
  Residual-Control   Outer-Iter.   Inner-Iter.     Column Row Layer    Maximum-Head-Change  Column Row Layer    Maximum-Flux-Residual          L2-NORM 
          0                 1           7            28   50     2       0.7089861293E+01      30   52    2         0.1547601613E+06      0.7264277243E+06
          0                 2           6            30   52     1      -0.9773390754E+00      30   52    1        -0.3912730360E+05      0.8750397811E+05
          0                 3           2            36   19     3      -0.1108198802E-01      43   31    1         0.3991618344E+03      0.6044172219E+03
          0                 4           1            60   93     1      -0.5651696760E-03      60   93    2        -0.2511432717E+02      0.2993158994E+02

    ------------------------------------------------
       NWT REQUIRED            4 OUTER ITERATIONS 
       AND A TOTAL OF         16 INNER ITERATIONS.
    ------------------------------------------------

 NO OUTPUT CONTROL FOR STRESS PERIOD   67   TIME STEP    3
 
 SOLVING FOR HEAD 
                                                   Max.-Head-Change                         Max.-Flux-Residual
  Residual-Control   Outer-Iter.   Inner-Iter.     Column Row Layer    Maximum-Head-Change  Column Row Layer    Maximum-Flux-Residual          L2-NORM 
          0                 1           7            28   50     2       0.5054279822E+01      28   50    2         0.1026006905E+06      0.6640515949E+06
          0                 2           6            60   93     2      -0.2049299199E+01      31   21    1        -0.1483793286E+05      0.7133703431E+05
          0                 3           2            60   93     2       0.1607324928E+00      60   93    2         0.1001778884E+04      0.1060818859E+04
          0                 4           2            84   88     2      -0.6785925913E-02      43   31    1         0.1333706462E+02      0.1669212136E+02

    ------------------------------------------------
       NWT REQUIRED            4 OUTER ITERATIONS 
       AND A TOTAL OF         17 INNER ITERATIONS.
    ------------------------------------------------

 NO OUTPUT CONTROL FOR STRESS PERIOD   67   TIME STEP    4
 
 SOLVING FOR HEAD 
                                                   Max.-Head-Change                         Max.-Flux-Residual
  Residual-Control   Outer-Iter.   Inner-Iter.     Column Row Layer    Maximum-Head-Change  Column Row Layer    Maximum-Flux-Residual          L2-NORM 
          0                 1           7            28   49     2       0.4462927946E+01      28   50    2         0.7346136243E+05      0.6267434403E+06
          0                 2           6            36   71     2      -0.2637900254E+01      61   83    1        -0.1219985769E+05      0.6422329552E+05
          0                 3           2            36   71     2       0.1806848959E+00      38   69    2        -0.5192421311E+04      0.5204770818E+04
          0                 4           2            38   69     2      -0.1463307090E-01      38   69    2        -0.4679950280E+03      0.4681665374E+03
          0                 5           2            38   69     2      -0.1315889699E-02      38   69    2        -0.4207891893E+02      0.4209126642E+02

    ------------------------------------------------
       NWT REQUIRED            5 OUTER ITERATIONS 
       AND A TOTAL OF         19 INNER ITERATIONS.
    ------------------------------------------------

 NO OUTPUT CONTROL FOR STRESS PERIOD   67   TIME STEP    5
 
 SOLVING FOR HEAD 
                                                   Max.-Head-Change                         Max.-Flux-Residual
  Residual-Control   Outer-Iter.   Inner-Iter.     Column Row Layer    Maximum-Head-Change  Column Row Layer    Maximum-Flux-Residual          L2-NORM 
          0                 1           7            28   49     2       0.4051081645E+01      28   49    2         0.6488512587E+05      0.6016730228E+06
          0                 2           6            38   69     2      -0.3664614574E+01      85   52    2         0.1126775410E+05      0.6313368059E+05
          0                 3           2            38   69     2       0.2501427898E+00      85   52    2        -0.1126059195E+04      0.1584059298E+04
          0                 4           2            38   69     2       0.5670909526E-02      38   69    2         0.6941807066E+01      0.9104759224E+01

    ------------------------------------------------
       NWT REQUIRED            4 OUTER ITERATIONS 
       AND A TOTAL OF         17 INNER ITERATIONS.
    ------------------------------------------------

 NO OUTPUT CONTROL FOR STRESS PERIOD   67   TIME STEP    6
 
 SOLVING FOR HEAD 
                                                   Max.-Head-Change                         Max.-Flux-Residual
  Residual-Control   Outer-Iter.   Inner-Iter.     Column Row Layer    Maximum-Head-Change  Column Row Layer    Maximum-Flux-Residual          L2-NORM 
          0                 1           7            28   49     2       0.3659713088E+01      28   49    2         0.5890075822E+05      0.5841623456E+06
          0                 2           6            28   49     2      -0.3418323755E+00      69   21    1        -0.1100941976E+05      0.6033832156E+05
          0                 3           2            30   45     2      -0.4555329414E-02      92   74    2        -0.1063831097E+02      0.4377589170E+02

    ------------------------------------------------
       NWT REQUIRED            3 OUTER ITERATIONS 
       AND A TOTAL OF         15 INNER ITERATIONS.
    ------------------------------------------------

 NO OUTPUT CONTROL FOR STRESS PERIOD   67   TIME STEP    7
 
 SOLVING FOR HEAD 
                                                   Max.-Head-Change                         Max.-Flux-Residual
  Residual-Control   Outer-Iter.   Inner-Iter.     Column Row Layer    Maximum-Head-Change  Column Row Layer    Maximum-Flux-Residual          L2-NORM 
          0                 1           7            28   49     2       0.3308751607E+01      28   49    2         0.5323446291E+05      0.5679704985E+06
          0                 2           5            28   49     2      -0.3080911285E+00      30   19    1        -0.9472871224E+04      0.5931223967E+05
          0                 3           2            30   19     2       0.1334639136E-01      30   19    2         0.1714113384E+04      0.1922161972E+04
          0                 4           2            30   19     2       0.1248681615E-02      30   19    2         0.1578780336E+03      0.1580444097E+03

    ------------------------------------------------
       NWT REQUIRED            4 OUTER ITERATIONS 
       AND A TOTAL OF         16 INNER ITERATIONS.
    ------------------------------------------------

 NO OUTPUT CONTROL FOR STRESS PERIOD   67   TIME STEP    8
 
 SOLVING FOR HEAD 
                                                   Max.-Head-Change                         Max.-Flux-Residual
  Residual-Control   Outer-Iter.   Inner-Iter.     Column Row Layer    Maximum-Head-Change  Column Row Layer    Maximum-Flux-Residual          L2-NORM 
          0                 1           7            28   49     2       0.3001583508E+01      28   49    2         0.4814693609E+05      0.5543571575E+06
          0                 2           6            32   49     2      -0.3286784725E+00      30   19    2         0.9810457301E+04      0.5865410026E+05
          0                 3           2            72   95     1       0.1192394746E-01      30   19    2        -0.8615274715E+03      0.9354779705E+03
          0                 4           1            85   85     2      -0.3170669336E-03      26   49    2         0.2236026043E+01      0.2844555501E+01

    ------------------------------------------------
       NWT REQUIRED            4 OUTER ITERATIONS 
       AND A TOTAL OF         16 INNER ITERATIONS.
    ------------------------------------------------

 NO OUTPUT CONTROL FOR STRESS PERIOD   67   TIME STEP    9
 
 SOLVING FOR HEAD 
                                                   Max.-Head-Change                         Max.-Flux-Residual
  Residual-Control   Outer-Iter.   Inner-Iter.     Column Row Layer    Maximum-Head-Change  Column Row Layer    Maximum-Flux-Residual          L2-NORM 
          0                 1           7            70   19     2       0.3161328228E+01      28   49    2         0.4369196916E+05      0.5426557878E+06
          0                 2           5            25   53     2      -0.4290317283E+00      25   53    2        -0.1644574154E+05      0.6263394348E+05
          0                 3           2            77   76     1       0.2974085558E-01      63  112    1        -0.9712328933E+03      0.1102098540E+04
          0                 4           2            63  112     1      -0.2510693297E-02      63  112    1        -0.8734656859E+02      0.9410933430E+02

    ------------------------------------------------
       NWT REQUIRED            4 OUTER ITERATIONS 
       AND A TOTAL OF         16 INNER ITERATIONS.
    ------------------------------------------------

 NO OUTPUT CONTROL FOR STRESS PERIOD   67   TIME STEP   10
 
 SOLVING FOR HEAD 
                                                   Max.-Head-Change                         Max.-Flux-Residual
  Residual-Control   Outer-Iter.   Inner-Iter.     Column Row Layer    Maximum-Head-Change  Column Row Layer    Maximum-Flux-Residual          L2-NORM 
          0                 1           7            28   49     2       0.2506816146E+01      70   19    1         0.4116766813E+05      0.5328840468E+06
          0                 2           5            34   67     2      -0.9912246213E+00      15   16    1        -0.1112548841E+05      0.5634733649E+05
          0                 3           2            34   67     2       0.4780910052E-01      28   18    2        -0.9801819421E+03      0.1105584915E+04
          0                 4           2            34   67     1       0.2073170000E-02      34   67    3         0.1569038510E+01      0.3636973513E+01

    ------------------------------------------------
       NWT REQUIRED            4 OUTER ITERATIONS 
       AND A TOTAL OF         16 INNER ITERATIONS.
    ------------------------------------------------

 NO OUTPUT CONTROL FOR STRESS PERIOD   67   TIME STEP   11
 
 SOLVING FOR HEAD 
                                                   Max.-Head-Change                         Max.-Flux-Residual
  Residual-Control   Outer-Iter.   Inner-Iter.     Column Row Layer    Maximum-Head-Change  Column Row Layer    Maximum-Flux-Residual          L2-NORM 
          0                 1           7            34   67     2      -0.3818376989E+01      70   19    1         0.3856720523E+05      0.5237679761E+06
          0                 2           5            61   83     2       0.2229872947E+00      31   19    1        -0.9024931475E+04      0.5465727294E+05
          0                 3           2            61   83     2      -0.2029944161E-01      61   83    2        -0.7977581343E+03      0.8372044063E+03
          0                 4           1            34   67     1       0.3203207928E-03      14   19    2         0.6233415203E+00      0.1383821148E+01

    ------------------------------------------------
       NWT REQUIRED            4 OUTER ITERATIONS 
       AND A TOTAL OF         15 INNER ITERATIONS.
    ------------------------------------------------

 OUTPUT CONTROL FOR STRESS PERIOD   67   TIME STEP   12
    SAVE BUDGET
 UBDSV1 SAVING "         STORAGE" ON UNIT  39 AT TIME STEP 12, STRESS PERIOD  67
 UBDSV2 SAVING "   CONSTANT HEAD" ON UNIT  39 AT TIME STEP 12, STRESS PERIOD  67
 UBDSV1 SAVING "FLOW RIGHT FACE " ON UNIT  39 AT TIME STEP 12, STRESS PERIOD  67
 UBDSV1 SAVING "FLOW FRONT FACE " ON UNIT  39 AT TIME STEP 12, STRESS PERIOD  67
 UBDSV1 SAVING "FLOW LOWER FACE " ON UNIT  39 AT TIME STEP 12, STRESS PERIOD  67
 UBDSV4 SAVING "           WELLS" ON UNIT  39 AT TIME STEP 12, STRESS PERIOD  67
 UBDSV3 SAVING "              ET" ON UNIT  39 AT TIME STEP 12, STRESS PERIOD  67
 UBDSV3 SAVING "        RECHARGE" ON UNIT  39 AT TIME STEP 12, STRESS PERIOD  67
1
  VOLUMETRIC BUDGET FOR ENTIRE MODEL AT END OF TIME STEP   12, STRESS PERIOD  67
  ------------------------------------------------------------------------------

     CUMULATIVE VOLUMES      L**3       RATES FOR THIS TIME STEP      L**3/T
     ------------------                 ------------------------

           IN:                                      IN:
           ---                                      ---
             STORAGE =431475752960.0000               STORAGE =     9114158.0000
       CONSTANT HEAD = 46047588352.0000         CONSTANT HEAD =     2556078.7500
               WELLS = 29993396224.0000                 WELLS =     1225642.0000
                  ET =           0.0000                    ET =           0.0000
            RECHARGE =524312084480.0000              RECHARGE =    40774220.0000

            TOTAL IN =       1.0318E+12              TOTAL IN =    53670104.0000

          OUT:                                     OUT:
          ----                                     ----
             STORAGE =114332278784.0000               STORAGE =    15617694.0000
       CONSTANT HEAD = 72280653824.0000         CONSTANT HEAD =     1848036.7500
               WELLS =821621882880.0000                 WELLS =    35560308.0000
                  ET = 23593359360.0000                    ET =      644073.7500
            RECHARGE =           0.0000              RECHARGE =           0.0000

           TOTAL OUT =       1.0318E+12             TOTAL OUT =    53670112.0000

            IN - OUT =      655360.0000              IN - OUT =          -8.0000

 PERCENT DISCREPANCY =           0.00     PERCENT DISCREPANCY =          -0.00






         TIME SUMMARY AT END OF TIME STEP   12 IN STRESS PERIOD   67
                    SECONDS     MINUTES      HOURS       DAYS        YEARS
                    -----------------------------------------------------------
   TIME STEP LENGTH 2.62800E+06  43800.      730.00      30.417     8.32763E-02
 STRESS PERIOD TIME 3.15360E+07 5.25600E+05  8760.0      365.00     0.99932    
         TOTAL TIME 2.11437E+09 3.52396E+07 5.87326E+05  24472.      67.000    
1
1
                            STRESS PERIOD NO.   68, LENGTH =   365.0000    
                            -----------------------------------------------

                              NUMBER OF TIME STEPS =    12

                               MULTIPLIER FOR DELT =     1.000

                            INITIAL TIME STEP SIZE =   30.41667    

   1568 WELLS

 REUSING SURF FROM LAST STRESS PERIOD

 REUSING EVTR FROM LAST STRESS PERIOD

 REUSING EXDP FROM LAST STRESS PERIOD



                           RECHARGE
 READING ON UNIT   16 WITH FORMAT: (15F5.0)            


     63 TIME-VARIANT SPECIFIED-HEAD CELLS
 
 SOLVING FOR HEAD 
                                                   Max.-Head-Change                         Max.-Flux-Residual
  Residual-Control   Outer-Iter.   Inner-Iter.     Column Row Layer    Maximum-Head-Change  Column Row Layer    Maximum-Flux-Residual          L2-NORM 
          0                 1           8            84   50     3       0.4954182786E+02      29   52    3        -0.3565808579E+06      0.1130932154E+07
          0                 2           6            84   50     3      -0.4458769894E+01      29   52    3         0.3565809451E+05      0.1135769399E+06
          0                 3           2            66   19     1       0.1465656528E+00      66   19    2        -0.1625492513E+04      0.2732944403E+04
          0                 4           2            65    5     2       0.5423858686E-02      24   26    2         0.1311278140E+03      0.1340650717E+03

    ------------------------------------------------
       NWT REQUIRED            4 OUTER ITERATIONS 
       AND A TOTAL OF         18 INNER ITERATIONS.
    ------------------------------------------------

 NO OUTPUT CONTROL FOR STRESS PERIOD   68   TIME STEP    1
 
 SOLVING FOR HEAD 
                                                   Max.-Head-Change                         Max.-Flux-Residual
  Residual-Control   Outer-Iter.   Inner-Iter.     Column Row Layer    Maximum-Head-Change  Column Row Layer    Maximum-Flux-Residual          L2-NORM 
          0                 1           7            65    5     2      -0.2305405571E+02      29   54    2        -0.1512060828E+06      0.6180223404E+06
          0                 2           5            77   46     1      -0.2412750369E+01      29   54    2         0.1427223883E+05      0.6430499373E+05
          0                 3           3            77   46     1       0.1961290359E+00      76   70    1         0.8598811689E+03      0.1527891409E+04
          0                 4           2            65    5     2       0.3231410153E-02      44   32    1        -0.1426638943E+02      0.1707598681E+02

    ------------------------------------------------
       NWT REQUIRED            4 OUTER ITERATIONS 
       AND A TOTAL OF         17 INNER ITERATIONS.
    ------------------------------------------------

 NO OUTPUT CONTROL FOR STRESS PERIOD   68   TIME STEP    2
 
 SOLVING FOR HEAD 
                                                   Max.-Head-Change                         Max.-Flux-Residual
  Residual-Control   Outer-Iter.   Inner-Iter.     Column Row Layer    Maximum-Head-Change  Column Row Layer    Maximum-Flux-Residual          L2-NORM 
          0                 1           7            80   52     3       0.2035334365E+01      29   54    2        -0.7543160611E+05      0.5176561817E+06
          0                 2           5            74   83     2       0.6009532672E+00      29   54    2         0.7347074104E+04      0.5250323826E+05
          0                 3           3            74   83     2      -0.5463299369E-01      43   32    1        -0.3386134863E+04      0.3434220563E+04
          0                 4           2            43   32     1      -0.2878468511E-02      43   32    1        -0.3056434631E+03      0.3057425394E+03

    ------------------------------------------------
       NWT REQUIRED            4 OUTER ITERATIONS 
       AND A TOTAL OF         17 INNER ITERATIONS.
    ------------------------------------------------

 NO OUTPUT CONTROL FOR STRESS PERIOD   68   TIME STEP    3
 
 SOLVING FOR HEAD 
                                                   Max.-Head-Change                         Max.-Flux-Residual
  Residual-Control   Outer-Iter.   Inner-Iter.     Column Row Layer    Maximum-Head-Change  Column Row Layer    Maximum-Flux-Residual          L2-NORM 
          0                 1           7            62   96     1      -0.1460738066E+01      62   96    2        -0.5112217920E+05      0.4693525681E+06
          0                 2           5            38   71     2      -0.4910272843E+00      33   33    1        -0.1308079683E+05      0.5007000280E+05
          0                 3           2            38   71     2       0.3523131156E-01      43   32    1         0.1004371765E+04      0.1090914358E+04
          0                 4           1            38   71     2       0.6970171076E-03      44   32    1        -0.7806615949E+01      0.9661614310E+01

    ------------------------------------------------
       NWT REQUIRED            4 OUTER ITERATIONS 
       AND A TOTAL OF         15 INNER ITERATIONS.
    ------------------------------------------------

 NO OUTPUT CONTROL FOR STRESS PERIOD   68   TIME STEP    4
 
 SOLVING FOR HEAD 
                                                   Max.-Head-Change                         Max.-Flux-Residual
  Residual-Control   Outer-Iter.   Inner-Iter.     Column Row Layer    Maximum-Head-Change  Column Row Layer    Maximum-Flux-Residual          L2-NORM 
          0                 1           6            38   71     2      -0.2765937579E+01      62   96    2        -0.4823991156E+05      0.4401243948E+06
          0                 2           5            38   71     2       0.1898850457E+00      24   27    1        -0.8793433316E+04      0.4550044889E+05
          0                 3           2            38   71     2       0.3622638036E-02      44   32    1        -0.2541727068E+03      0.2829029202E+03

    ------------------------------------------------
       NWT REQUIRED            3 OUTER ITERATIONS 
       AND A TOTAL OF         13 INNER ITERATIONS.
    ------------------------------------------------

 NO OUTPUT CONTROL FOR STRESS PERIOD   68   TIME STEP    5
 
 SOLVING FOR HEAD 
                                                   Max.-Head-Change                         Max.-Flux-Residual
  Residual-Control   Outer-Iter.   Inner-Iter.     Column Row Layer    Maximum-Head-Change  Column Row Layer    Maximum-Flux-Residual          L2-NORM 
          0                 1           6            62   96     1      -0.1342229593E+01      62   96    2        -0.4593639317E+05      0.4205082593E+06
          0                 2           5            62   96     1       0.1184274151E+00      62   96    2         0.4580373157E+04      0.4231417540E+05
          0                 3           2            44   32     1      -0.2469208730E-02      44   32    1        -0.2404935837E+03      0.3303099806E+03

    ------------------------------------------------
       NWT REQUIRED            3 OUTER ITERATIONS 
       AND A TOTAL OF         13 INNER ITERATIONS.
    ------------------------------------------------

 NO OUTPUT CONTROL FOR STRESS PERIOD   68   TIME STEP    6
 
 SOLVING FOR HEAD 
                                                   Max.-Head-Change                         Max.-Flux-Residual
  Residual-Control   Outer-Iter.   Inner-Iter.     Column Row Layer    Maximum-Head-Change  Column Row Layer    Maximum-Flux-Residual          L2-NORM 
          0                 1           6            62   96     1      -0.1298032307E+01      62   96    2        -0.4406709646E+05      0.4059904769E+06
          0                 2           5            78   52     1      -0.4684936825E+00      78   52    1        -0.1600765370E+05      0.4546981285E+05
          0                 3           2            43   31     1      -0.2473255353E-02      43   31    1        -0.2594783152E+03      0.3448195322E+03

    ------------------------------------------------
       NWT REQUIRED            3 OUTER ITERATIONS 
       AND A TOTAL OF         13 INNER ITERATIONS.
    ------------------------------------------------

 NO OUTPUT CONTROL FOR STRESS PERIOD   68   TIME STEP    7
 
 SOLVING FOR HEAD 
                                                   Max.-Head-Change                         Max.-Flux-Residual
  Residual-Control   Outer-Iter.   Inner-Iter.     Column Row Layer    Maximum-Head-Change  Column Row Layer    Maximum-Flux-Residual          L2-NORM 
          0                 1           6            62   96     1      -0.1260874711E+01      62   96    2        -0.4252701040E+05      0.3947155863E+06
          0                 2           5            74   65     1      -0.3559273722E+00      38   23    1        -0.1172236998E+05      0.4217364296E+05
          0                 3           2            74   65     1       0.2750464475E-01      43   31    1        -0.3030715373E+03      0.4765849002E+03
          0                 4           1            74   65     1       0.3891441788E-03      44   32    1        -0.1015103310E+02      0.1454810887E+02

    ------------------------------------------------
       NWT REQUIRED            4 OUTER ITERATIONS 
       AND A TOTAL OF         14 INNER ITERATIONS.
    ------------------------------------------------

 NO OUTPUT CONTROL FOR STRESS PERIOD   68   TIME STEP    8
 
 SOLVING FOR HEAD 
                                                   Max.-Head-Change                         Max.-Flux-Residual
  Residual-Control   Outer-Iter.   Inner-Iter.     Column Row Layer    Maximum-Head-Change  Column Row Layer    Maximum-Flux-Residual          L2-NORM 
          0                 1           6            74   65     1      -0.2679253823E+01      62   96    2        -0.4123994711E+05      0.3855011552E+06
          0                 2           5            65   92     1      -0.2642106950E+00      62   96    2         0.4113713677E+04      0.3881466134E+05
          0                 3           2            65   92     1       0.2284908038E-01      43   31    1        -0.3321365772E+03      0.4119361072E+03
          0                 4           1            85   85     2      -0.3098611650E-03      44   32    1        -0.9213920116E+01      0.1249051522E+02

    ------------------------------------------------
       NWT REQUIRED            4 OUTER ITERATIONS 
       AND A TOTAL OF         14 INNER ITERATIONS.
    ------------------------------------------------

 NO OUTPUT CONTROL FOR STRESS PERIOD   68   TIME STEP    9
 
 SOLVING FOR HEAD 
                                                   Max.-Head-Change                         Max.-Flux-Residual
  Residual-Control   Outer-Iter.   Inner-Iter.     Column Row Layer    Maximum-Head-Change  Column Row Layer    Maximum-Flux-Residual          L2-NORM 
          0                 1           6            62   96     1      -0.1202027293E+01      62   96    2        -0.4015022984E+05      0.3782041862E+06
          0                 2           5            39   71     2      -0.1761425969E+01      18   12    2         0.4232230622E+04      0.3845558228E+05
          0                 3           2            39   71     2       0.1287435983E+00      43   31    1        -0.3496118990E+03      0.6048834492E+03
          0                 4           2            39   71     2       0.2281363878E-02      44   32    1        -0.8795607388E+01      0.1267392855E+02

    ------------------------------------------------
       NWT REQUIRED            4 OUTER ITERATIONS 
       AND A TOTAL OF         15 INNER ITERATIONS.
    ------------------------------------------------

 NO OUTPUT CONTROL FOR STRESS PERIOD   68   TIME STEP   10
 
 SOLVING FOR HEAD 
                                                   Max.-Head-Change                         Max.-Flux-Residual
  Residual-Control   Outer-Iter.   Inner-Iter.     Column Row Layer    Maximum-Head-Change  Column Row Layer    Maximum-Flux-Residual          L2-NORM 
          0                 1           6            39   71     2      -0.1339004157E+01      62   96    2        -0.3921665222E+05      0.3719550554E+06
          0                 2           5            64   26     2       0.1132481397E+00      64   26    2         0.5263102240E+04      0.3793023348E+05
          0                 3           2            43   31     1      -0.3347318961E-02      43   31    1        -0.3583542925E+03      0.4219260782E+03

    ------------------------------------------------
       NWT REQUIRED            3 OUTER ITERATIONS 
       AND A TOTAL OF         13 INNER ITERATIONS.
    ------------------------------------------------

 NO OUTPUT CONTROL FOR STRESS PERIOD   68   TIME STEP   11
 
 SOLVING FOR HEAD 
                                                   Max.-Head-Change                         Max.-Flux-Residual
  Residual-Control   Outer-Iter.   Inner-Iter.     Column Row Layer    Maximum-Head-Change  Column Row Layer    Maximum-Flux-Residual          L2-NORM 
          0                 1           6            62   96     1      -0.1157628667E+01      62   96    2        -0.3840835925E+05      0.3664959876E+06
          0                 2           5            40   62     2      -0.4661742118E+00      64   95    2         0.6304574346E+04      0.3776808143E+05
          0                 3           2            83   52     1      -0.2209165386E+00      83   52    1        -0.1108552418E+05      0.1109614851E+05
          0                 4           2            83   52     1      -0.1991291286E-01      83   52    1        -0.1000916650E+04      0.1002245030E+04
          0                 5           2            83   52     1      -0.1790634329E-02      83   52    1        -0.8999434923E+02      0.9011860157E+02

    ------------------------------------------------
       NWT REQUIRED            5 OUTER ITERATIONS 
       AND A TOTAL OF         17 INNER ITERATIONS.
    ------------------------------------------------

 OUTPUT CONTROL FOR STRESS PERIOD   68   TIME STEP   12
    SAVE BUDGET
 UBDSV1 SAVING "         STORAGE" ON UNIT  39 AT TIME STEP 12, STRESS PERIOD  68
 UBDSV2 SAVING "   CONSTANT HEAD" ON UNIT  39 AT TIME STEP 12, STRESS PERIOD  68
 UBDSV1 SAVING "FLOW RIGHT FACE " ON UNIT  39 AT TIME STEP 12, STRESS PERIOD  68
 UBDSV1 SAVING "FLOW FRONT FACE " ON UNIT  39 AT TIME STEP 12, STRESS PERIOD  68
 UBDSV1 SAVING "FLOW LOWER FACE " ON UNIT  39 AT TIME STEP 12, STRESS PERIOD  68
 UBDSV4 SAVING "           WELLS" ON UNIT  39 AT TIME STEP 12, STRESS PERIOD  68
 UBDSV3 SAVING "              ET" ON UNIT  39 AT TIME STEP 12, STRESS PERIOD  68
 UBDSV3 SAVING "        RECHARGE" ON UNIT  39 AT TIME STEP 12, STRESS PERIOD  68
1
  VOLUMETRIC BUDGET FOR ENTIRE MODEL AT END OF TIME STEP   12, STRESS PERIOD  68
  ------------------------------------------------------------------------------

     CUMULATIVE VOLUMES      L**3       RATES FOR THIS TIME STEP      L**3/T
     ------------------                 ------------------------

           IN:                                      IN:
           ---                                      ---
             STORAGE =435510706176.0000               STORAGE =    10059430.0000
       CONSTANT HEAD = 46970679296.0000         CONSTANT HEAD =     2519820.5000
               WELLS = 30440753152.0000                 WELLS =     1225642.0000
                  ET =           0.0000                    ET =           0.0000
            RECHARGE =537219006464.0000              RECHARGE =    35361772.0000

            TOTAL IN =       1.0501E+12              TOTAL IN =    49166664.0000

          OUT:                                     OUT:
          ----                                     ----
             STORAGE =118221627392.0000               STORAGE =     9710002.0000
       CONSTANT HEAD = 72955478016.0000         CONSTANT HEAD =     1865992.6250
               WELLS =835177152512.0000                 WELLS =    37124900.0000
                  ET = 23786289152.0000                    ET =      465781.8125
            RECHARGE =           0.0000              RECHARGE =           0.0000

           TOTAL OUT =       1.0501E+12             TOTAL OUT =    49166672.0000

            IN - OUT =      655360.0000              IN - OUT =          -8.0000

 PERCENT DISCREPANCY =           0.00     PERCENT DISCREPANCY =          -0.00






         TIME SUMMARY AT END OF TIME STEP   12 IN STRESS PERIOD   68
                    SECONDS     MINUTES      HOURS       DAYS        YEARS
                    -----------------------------------------------------------
   TIME STEP LENGTH 2.62800E+06  43800.      730.00      30.417     8.32763E-02
 STRESS PERIOD TIME 3.15360E+07 5.25600E+05  8760.0      365.00     0.99932    
         TOTAL TIME 2.14591E+09 3.57652E+07 5.96086E+05  24837.      68.000    
1
1
                            STRESS PERIOD NO.   69, LENGTH =   366.0000    
                            -----------------------------------------------

                              NUMBER OF TIME STEPS =    12

                               MULTIPLIER FOR DELT =     1.000

                            INITIAL TIME STEP SIZE =   30.50000    

   1551 WELLS

 REUSING SURF FROM LAST STRESS PERIOD

 REUSING EVTR FROM LAST STRESS PERIOD

 REUSING EXDP FROM LAST STRESS PERIOD



                           RECHARGE
 READING ON UNIT   16 WITH FORMAT: (15F5.0)            


     63 TIME-VARIANT SPECIFIED-HEAD CELLS
 
 SOLVING FOR HEAD 
                                                   Max.-Head-Change                         Max.-Flux-Residual
  Residual-Control   Outer-Iter.   Inner-Iter.     Column Row Layer    Maximum-Head-Change  Column Row Layer    Maximum-Flux-Residual          L2-NORM 
          0                 1           7            84   56     3       0.1936545584E+02      30   53    1         0.1935452189E+06      0.9112787743E+06
          0                 2           5            61   34     3       0.9061798755E+01      61   34    3         0.1626608760E+06      0.1872191653E+06
          0                 3           3            60   34     3      -0.3730581683E+00      76   67    1        -0.5237775118E+04      0.5746300320E+04
          0                 4           2            60   34     3      -0.3356614134E-01      76   67    1        -0.4724220340E+03      0.4869988845E+03
          0                 5           2            60   34     3      -0.3026025909E-02      76   67    1        -0.4247748141E+02      0.4379497921E+02

    ------------------------------------------------
       NWT REQUIRED            5 OUTER ITERATIONS 
       AND A TOTAL OF         19 INNER ITERATIONS.
    ------------------------------------------------

 NO OUTPUT CONTROL FOR STRESS PERIOD   69   TIME STEP    1
 
 SOLVING FOR HEAD 
                                                   Max.-Head-Change                         Max.-Flux-Residual
  Residual-Control   Outer-Iter.   Inner-Iter.     Column Row Layer    Maximum-Head-Change  Column Row Layer    Maximum-Flux-Residual          L2-NORM 
          0                 1           7            31   61     2       0.4738702096E+01      31   61    2         0.1415732656E+06      0.6058410221E+06
          0                 2           5            76   67     1      -0.3702545360E+01      31   61    2        -0.1462318012E+05      0.6141744011E+05
          0                 3           2            72   15     1      -0.2614736012E+00      72   15    1        -0.9616939311E+04      0.9636791327E+04
          0                 4           2            72   15     1      -0.2355591555E-01      72   15    1        -0.8661662984E+03      0.8662710162E+03
          0                 5           2            72   15     1      -0.2118334706E-02      72   15    1        -0.7787352577E+02      0.7788147953E+02

    ------------------------------------------------
       NWT REQUIRED            5 OUTER ITERATIONS 
       AND A TOTAL OF         18 INNER ITERATIONS.
    ------------------------------------------------

 NO OUTPUT CONTROL FOR STRESS PERIOD   69   TIME STEP    2
 
 SOLVING FOR HEAD 
                                                   Max.-Head-Change                         Max.-Flux-Residual
  Residual-Control   Outer-Iter.   Inner-Iter.     Column Row Layer    Maximum-Head-Change  Column Row Layer    Maximum-Flux-Residual          L2-NORM 
          0                 1           7            31   61     2       0.3976351018E+01      31   61    2         0.1180994757E+06      0.5283498422E+06
          0                 2           5            72   15     1      -0.3845583628E+01      72   15    1        -0.2084907389E+05      0.5731848802E+05
          0                 3           2            72   15     1       0.3313949943E+00      72   15    1         0.1978738758E+04      0.2080249682E+04
          0                 4           2            72   15     1       0.1546967986E-02      72   15    1         0.9135041211E+01      0.9504873109E+01

    ------------------------------------------------
       NWT REQUIRED            4 OUTER ITERATIONS 
       AND A TOTAL OF         16 INNER ITERATIONS.
    ------------------------------------------------

 NO OUTPUT CONTROL FOR STRESS PERIOD   69   TIME STEP    3
 
 SOLVING FOR HEAD 
                                                   Max.-Head-Change                         Max.-Flux-Residual
  Residual-Control   Outer-Iter.   Inner-Iter.     Column Row Layer    Maximum-Head-Change  Column Row Layer    Maximum-Flux-Residual          L2-NORM 
          0                 1           7            31   61     2       0.3367401966E+01      31   61    2         0.9919424751E+05      0.4871167060E+06
          0                 2           5            92   77     2      -0.6856921889E+01      32   61    2        -0.1012870812E+05      0.4971172356E+05
          0                 3           2            84   50     2      -0.7113707531E-01      70   19    1        -0.2383863537E+04      0.2454933260E+04
          0                 4           2            70   19     1      -0.5159418065E-02      70   19    1        -0.2145452662E+03      0.2145663067E+03

    ------------------------------------------------
       NWT REQUIRED            4 OUTER ITERATIONS 
       AND A TOTAL OF         16 INNER ITERATIONS.
    ------------------------------------------------

 NO OUTPUT CONTROL FOR STRESS PERIOD   69   TIME STEP    4
 
 SOLVING FOR HEAD 
                                                   Max.-Head-Change                         Max.-Flux-Residual
  Residual-Control   Outer-Iter.   Inner-Iter.     Column Row Layer    Maximum-Head-Change  Column Row Layer    Maximum-Flux-Residual          L2-NORM 
          0                 1           7            92   77     2      -0.5369312576E+02      31   61    2         0.8399301638E+05      0.4608076530E+06
          0                 2           5            70   19     1      -0.2697313959E+01      70   19    1        -0.1997392178E+05      0.5137245231E+05
          0                 3           2            70   19     1       0.2350600106E+00      70   19    1         0.1916393173E+04      0.2091134732E+04
          0                 4           2            92   77     2       0.2993919681E-02      70   19    1         0.7021279689E+01      0.7386180620E+01

    ------------------------------------------------
       NWT REQUIRED            4 OUTER ITERATIONS 
       AND A TOTAL OF         16 INNER ITERATIONS.
    ------------------------------------------------

 NO OUTPUT CONTROL FOR STRESS PERIOD   69   TIME STEP    5
 
 SOLVING FOR HEAD 
                                                   Max.-Head-Change                         Max.-Flux-Residual
  Residual-Control   Outer-Iter.   Inner-Iter.     Column Row Layer    Maximum-Head-Change  Column Row Layer    Maximum-Flux-Residual          L2-NORM 
          0                 1           7            31   61     2       0.2480305687E+01      31   61    2         0.7176461349E+05      0.4432481438E+06
          0                 2           5            56   32     2      -0.4346035649E+00      31   61    2        -0.7264579938E+04      0.4513351369E+05
          0                 3           2            56   32     2       0.3363387441E-01      63  111    1        -0.6315007854E+03      0.6456889534E+03
          0                 4           2            63  111     1      -0.1624416343E-02      63  111    1        -0.5683571350E+02      0.5687981070E+02

    ------------------------------------------------
       NWT REQUIRED            4 OUTER ITERATIONS 
       AND A TOTAL OF         16 INNER ITERATIONS.
    ------------------------------------------------

 NO OUTPUT CONTROL FOR STRESS PERIOD   69   TIME STEP    6
 
 SOLVING FOR HEAD 
                                                   Max.-Head-Change                         Max.-Flux-Residual
  Residual-Control   Outer-Iter.   Inner-Iter.     Column Row Layer    Maximum-Head-Change  Column Row Layer    Maximum-Flux-Residual          L2-NORM 
          0                 1           7            56   32     2      -0.2232540224E+01      31   61    2         0.6190765025E+05      0.4296863377E+06
          0                 2           5            35   71     2      -0.1894656241E+01      26   55    2        -0.1098008934E+05      0.4465312207E+05
          0                 3           2            35   71     2       0.1242561936E+00      25   30    2        -0.3445751784E+03      0.4383338019E+03
          0                 4           2            35   71     2       0.3134307404E-02      35   71    2         0.3463472626E+01      0.4483845107E+01

    ------------------------------------------------
       NWT REQUIRED            4 OUTER ITERATIONS 
       AND A TOTAL OF         16 INNER ITERATIONS.
    ------------------------------------------------

 NO OUTPUT CONTROL FOR STRESS PERIOD   69   TIME STEP    7
 
 SOLVING FOR HEAD 
                                                   Max.-Head-Change                         Max.-Flux-Residual
  Residual-Control   Outer-Iter.   Inner-Iter.     Column Row Layer    Maximum-Head-Change  Column Row Layer    Maximum-Flux-Residual          L2-NORM 
          0                 1           7            31   61     2       0.1894686262E+01      31   61    2         0.5387089670E+05      0.4190895620E+06
          0                 2           5            67   99     1      -0.2811074139E+00      61   66    2         0.6835502108E+04      0.4283051185E+05
          0                 3           2            67   99     1       0.2286561898E-01      65   53    2        -0.4861763740E+03      0.5568538604E+03
          0                 4           1            85   85     2      -0.2390090753E-03      67   99    1         0.5402463265E+00      0.1337419441E+01

    ------------------------------------------------
       NWT REQUIRED            4 OUTER ITERATIONS 
       AND A TOTAL OF         15 INNER ITERATIONS.
    ------------------------------------------------

 NO OUTPUT CONTROL FOR STRESS PERIOD   69   TIME STEP    8
 
 SOLVING FOR HEAD 
                                                   Max.-Head-Change                         Max.-Flux-Residual
  Residual-Control   Outer-Iter.   Inner-Iter.     Column Row Layer    Maximum-Head-Change  Column Row Layer    Maximum-Flux-Residual          L2-NORM 
          0                 1           7            31   61     2       0.1680033613E+01      31   61    2         0.4731666361E+05      0.4106469928E+06
          0                 2           5            82   60     1      -0.3271791120E+01      26   31    1        -0.7697275699E+04      0.4332232814E+05
          0                 3           2            82   60     1       0.1868387455E+00      44   32    1         0.6459050854E+03      0.8206109596E+03
          0                 4           2            82   60     1       0.6354803206E-02      82   60    1         0.6280637448E+01      0.7401268959E+01

    ------------------------------------------------
       NWT REQUIRED            4 OUTER ITERATIONS 
       AND A TOTAL OF         16 INNER ITERATIONS.
    ------------------------------------------------

 NO OUTPUT CONTROL FOR STRESS PERIOD   69   TIME STEP    9
 
 SOLVING FOR HEAD 
                                                   Max.-Head-Change                         Max.-Flux-Residual
  Residual-Control   Outer-Iter.   Inner-Iter.     Column Row Layer    Maximum-Head-Change  Column Row Layer    Maximum-Flux-Residual          L2-NORM 
          0                 1           7            82   60     1      -0.2870301969E+01      31   61    2         0.4196264682E+05      0.4036827288E+06
          0                 2           5            82   60     1       0.1642738275E+00      21   24    1        -0.8818748216E+04      0.4248348407E+05
          0                 3           2            67   53     2      -0.1103562445E-01      67   53    2        -0.3920842351E+03      0.5786644103E+03
          0                 4           1            85   85     2      -0.2312782855E-03      68   52    2         0.2727185810E+00      0.9950124426E+00

    ------------------------------------------------
       NWT REQUIRED            4 OUTER ITERATIONS 
       AND A TOTAL OF         15 INNER ITERATIONS.
    ------------------------------------------------

 NO OUTPUT CONTROL FOR STRESS PERIOD   69   TIME STEP   10
 
 SOLVING FOR HEAD 
                                                   Max.-Head-Change                         Max.-Flux-Residual
  Residual-Control   Outer-Iter.   Inner-Iter.     Column Row Layer    Maximum-Head-Change  Column Row Layer    Maximum-Flux-Residual          L2-NORM 
          0                 1           6            31   61     2       0.1358972666E+01      31   61    2         0.3757141848E+05      0.3979119679E+06
          0                 2           5            73   15     3       0.4310947832E+00      73   15    3         0.1269058234E+05      0.4268488871E+05
          0                 3           2            64  101     1      -0.7593411561E-01      64  101    1        -0.3217139230E+04      0.3894583841E+04
          0                 4           2            64  101     1      -0.6851266233E-02      64  101    1        -0.2901613482E+03      0.3454402214E+03

    ------------------------------------------------
       NWT REQUIRED            4 OUTER ITERATIONS 
       AND A TOTAL OF         15 INNER ITERATIONS.
    ------------------------------------------------

 NO OUTPUT CONTROL FOR STRESS PERIOD   69   TIME STEP   11
 
 SOLVING FOR HEAD 
                                                   Max.-Head-Change                         Max.-Flux-Residual
  Residual-Control   Outer-Iter.   Inner-Iter.     Column Row Layer    Maximum-Head-Change  Column Row Layer    Maximum-Flux-Residual          L2-NORM 
          0                 1           7            64   94     1      -0.1266936093E+01      61   96    2        -0.3469340659E+05      0.3928097864E+06
          0                 2           5            64   95     1      -0.5788259925E+00      64   95    1        -0.8282304425E+04      0.4154824827E+05
          0                 3           2            64   95     1       0.5146512910E-01      64   95    1         0.8100859327E+03      0.9640487631E+03
          0                 4           1            69   98     1       0.3880857150E-03      64   95    1         0.1499805875E+01      0.2210505741E+01

    ------------------------------------------------
       NWT REQUIRED            4 OUTER ITERATIONS 
       AND A TOTAL OF         15 INNER ITERATIONS.
    ------------------------------------------------

 OUTPUT CONTROL FOR STRESS PERIOD   69   TIME STEP   12
    SAVE BUDGET
 UBDSV1 SAVING "         STORAGE" ON UNIT  39 AT TIME STEP 12, STRESS PERIOD  69
 UBDSV2 SAVING "   CONSTANT HEAD" ON UNIT  39 AT TIME STEP 12, STRESS PERIOD  69
 UBDSV1 SAVING "FLOW RIGHT FACE " ON UNIT  39 AT TIME STEP 12, STRESS PERIOD  69
 UBDSV1 SAVING "FLOW FRONT FACE " ON UNIT  39 AT TIME STEP 12, STRESS PERIOD  69
 UBDSV1 SAVING "FLOW LOWER FACE " ON UNIT  39 AT TIME STEP 12, STRESS PERIOD  69
 UBDSV4 SAVING "           WELLS" ON UNIT  39 AT TIME STEP 12, STRESS PERIOD  69
 UBDSV3 SAVING "              ET" ON UNIT  39 AT TIME STEP 12, STRESS PERIOD  69
 UBDSV3 SAVING "        RECHARGE" ON UNIT  39 AT TIME STEP 12, STRESS PERIOD  69
1
  VOLUMETRIC BUDGET FOR ENTIRE MODEL AT END OF TIME STEP   12, STRESS PERIOD  69
  ------------------------------------------------------------------------------

     CUMULATIVE VOLUMES      L**3       RATES FOR THIS TIME STEP      L**3/T
     ------------------                 ------------------------

           IN:                                      IN:
           ---                                      ---
             STORAGE =439300980736.0000               STORAGE =     9724696.0000
       CONSTANT HEAD = 47897915392.0000         CONSTANT HEAD =     2548357.7500
               WELLS = 30889338880.0000                 WELLS =     1225642.0000
                  ET =           0.0000                    ET =           0.0000
            RECHARGE =550444400640.0000              RECHARGE =    36134860.0000

            TOTAL IN =       1.0685E+12              TOTAL IN =    49633556.0000

          OUT:                                     OUT:
          ----                                     ----
             STORAGE =122440327168.0000               STORAGE =    10960595.0000
       CONSTANT HEAD = 73572491264.0000         CONSTANT HEAD =     1629857.7500
               WELLS =848557506560.0000                 WELLS =    36557988.0000
                  ET = 23961769984.0000                    ET =      485128.8750
            RECHARGE =           0.0000              RECHARGE =           0.0000

           TOTAL OUT =       1.0685E+12             TOTAL OUT =    49633568.0000

            IN - OUT =      524288.0000              IN - OUT =         -12.0000

 PERCENT DISCREPANCY =           0.00     PERCENT DISCREPANCY =          -0.00






         TIME SUMMARY AT END OF TIME STEP   12 IN STRESS PERIOD   69
                    SECONDS     MINUTES      HOURS       DAYS        YEARS
                    -----------------------------------------------------------
   TIME STEP LENGTH 2.63520E+06  43920.      732.00      30.500     8.35044E-02
 STRESS PERIOD TIME 3.16224E+07 5.27040E+05  8784.0      366.00      1.0021    
         TOTAL TIME 2.17753E+09 3.62922E+07 6.04870E+05  25203.      69.002    
1
1
                            STRESS PERIOD NO.   70, LENGTH =   365.0000    
                            -----------------------------------------------

                              NUMBER OF TIME STEPS =    12

                               MULTIPLIER FOR DELT =     1.000

                            INITIAL TIME STEP SIZE =   30.41667    

   1401 WELLS

 REUSING SURF FROM LAST STRESS PERIOD

 REUSING EVTR FROM LAST STRESS PERIOD

 REUSING EXDP FROM LAST STRESS PERIOD



                           RECHARGE
 READING ON UNIT   16 WITH FORMAT: (15F5.0)            


     63 TIME-VARIANT SPECIFIED-HEAD CELLS
 
 SOLVING FOR HEAD 
                                                   Max.-Head-Change                         Max.-Flux-Residual
  Residual-Control   Outer-Iter.   Inner-Iter.     Column Row Layer    Maximum-Head-Change  Column Row Layer    Maximum-Flux-Residual          L2-NORM 
          0                 1           8            92   77     2      -0.7279126561E+02      32   61    1         0.3260381715E+06      0.1314579159E+07
          0                 2           6            92   77     2       0.3184776764E+02      34   67    2        -0.4630682474E+05      0.1521516049E+06
          0                 3           3            92   77     2       0.1510965422E+01      34   67    3        -0.2328542069E+04      0.3680319563E+04
          0                 4           2            92   77     2       0.6526959374E-01      92   77    2         0.4112155521E+02      0.4373284922E+02
          0                 5           2            92   77     2       0.2846816321E-02      92   77    2         0.1794136463E+01      0.2085091061E+01

    ------------------------------------------------
       NWT REQUIRED            5 OUTER ITERATIONS 
       AND A TOTAL OF         21 INNER ITERATIONS.
    ------------------------------------------------

 NO OUTPUT CONTROL FOR STRESS PERIOD   70   TIME STEP    1
 
 SOLVING FOR HEAD 
                                                   Max.-Head-Change                         Max.-Flux-Residual
  Residual-Control   Outer-Iter.   Inner-Iter.     Column Row Layer    Maximum-Head-Change  Column Row Layer    Maximum-Flux-Residual          L2-NORM 
          0                 1           8            31   61     2       0.9454795864E+01      32   60    2         0.2931828423E+06      0.9642856108E+06
          0                 2           5            31   61     2      -0.8877429912E+00      44   32    1        -0.3227644932E+05      0.1076832492E+06
          0                 3           3            35   68     3       0.3316495146E-01      35   68    3         0.1350909147E+04      0.1879855828E+04
          0                 4           2            35   68     2       0.3426214742E-02      35   68    3         0.1216326991E+03      0.1277913480E+03

    ------------------------------------------------
       NWT REQUIRED            4 OUTER ITERATIONS 
       AND A TOTAL OF         18 INNER ITERATIONS.
    ------------------------------------------------

 NO OUTPUT CONTROL FOR STRESS PERIOD   70   TIME STEP    2
 
 SOLVING FOR HEAD 
                                                   Max.-Head-Change                         Max.-Flux-Residual
  Residual-Control   Outer-Iter.   Inner-Iter.     Column Row Layer    Maximum-Head-Change  Column Row Layer    Maximum-Flux-Residual          L2-NORM 
          0                 1           7            31   61     2       0.7752583283E+01      31   61    2         0.2359293618E+06      0.8269207867E+06
          0                 2           6            44   32     2       0.1322097591E+01      44   32    2         0.1255751068E+06      0.1518772086E+06
          0                 3           4            44   32     2      -0.1213882075E+00      44   32    2        -0.1257152425E+05      0.1270133569E+05
          0                 4           1            85   85     2      -0.2584681882E-03      43   31    2        -0.6141949832E+01      0.8290336471E+01

    ------------------------------------------------
       NWT REQUIRED            4 OUTER ITERATIONS 
       AND A TOTAL OF         18 INNER ITERATIONS.
    ------------------------------------------------

 NO OUTPUT CONTROL FOR STRESS PERIOD   70   TIME STEP    3
 
 SOLVING FOR HEAD 
                                                   Max.-Head-Change                         Max.-Flux-Residual
  Residual-Control   Outer-Iter.   Inner-Iter.     Column Row Layer    Maximum-Head-Change  Column Row Layer    Maximum-Flux-Residual          L2-NORM 
          0                 1           7            31   61     2       0.6423252595E+01      31   61    2         0.1936929786E+06      0.7434715408E+06
          0                 2           5            74   66     1      -0.1195499519E+01      31   61    2        -0.1998478264E+05      0.7910946448E+05
          0                 3           2            74   66     1       0.9116393538E-01      74   66    1         0.1474079332E+03      0.1641058755E+03
          0                 4           2            74   66     1       0.1340057804E-02      74   66    1         0.2152023769E+01      0.3045236988E+01

    ------------------------------------------------
       NWT REQUIRED            4 OUTER ITERATIONS 
       AND A TOTAL OF         16 INNER ITERATIONS.
    ------------------------------------------------

 NO OUTPUT CONTROL FOR STRESS PERIOD   70   TIME STEP    4
 
 SOLVING FOR HEAD 
                                                   Max.-Head-Change                         Max.-Flux-Residual
  Residual-Control   Outer-Iter.   Inner-Iter.     Column Row Layer    Maximum-Head-Change  Column Row Layer    Maximum-Flux-Residual          L2-NORM 
          0                 1           7            31   61     2       0.5387174740E+01      31   61    2         0.1606255883E+06      0.6856987425E+06
          0                 2           5            31   61     2      -0.4932153930E+00      43   32    1        -0.2448964690E+05      0.7444357043E+05
          0                 3           2            73   15     2       0.3141761730E-01      73   15    2         0.2475480063E+03      0.3211370261E+03
          0                 4           1            73   15     1       0.3884057258E-03      73   15    1         0.8167495932E+00      0.2749198657E+01

    ------------------------------------------------
       NWT REQUIRED            4 OUTER ITERATIONS 
       AND A TOTAL OF         15 INNER ITERATIONS.
    ------------------------------------------------

 NO OUTPUT CONTROL FOR STRESS PERIOD   70   TIME STEP    5
 
 SOLVING FOR HEAD 
                                                   Max.-Head-Change                         Max.-Flux-Residual
  Residual-Control   Outer-Iter.   Inner-Iter.     Column Row Layer    Maximum-Head-Change  Column Row Layer    Maximum-Flux-Residual          L2-NORM 
          0                 1           7            31   61     2       0.4576172910E+01      31   61    2         0.1347993091E+06      0.6436190002E+06
          0                 2           5            31   61     2      -0.4168941539E+00      31   61    2        -0.1370840612E+05      0.6728914863E+05
          0                 3           2            59  118     1       0.1537527352E-01      21   70    2        -0.4641264253E+03      0.6369390751E+03
          0                 4           1            21   70     1      -0.8864038109E-03      21   70    2        -0.4190203667E+02      0.5206913093E+02

    ------------------------------------------------
       NWT REQUIRED            4 OUTER ITERATIONS 
       AND A TOTAL OF         15 INNER ITERATIONS.
    ------------------------------------------------

 NO OUTPUT CONTROL FOR STRESS PERIOD   70   TIME STEP    6
 
 SOLVING FOR HEAD 
                                                   Max.-Head-Change                         Max.-Flux-Residual
  Residual-Control   Outer-Iter.   Inner-Iter.     Column Row Layer    Maximum-Head-Change  Column Row Layer    Maximum-Flux-Residual          L2-NORM 
          0                 1           7            31   61     2       0.3937756817E+01      31   61    2         0.1145676728E+06      0.6125471390E+06
          0                 2           5            73   11     2      -0.1105686261E+01      31   61    2        -0.1159889490E+05      0.6305331384E+05
          0                 3           2            73   11     2       0.6600446944E-01      24   28    2         0.5696832807E+03      0.8704715135E+03
          0                 4           2            73   11     2       0.2057139866E-02      24   28    2         0.5124199217E+02      0.5133611681E+02

    ------------------------------------------------
       NWT REQUIRED            4 OUTER ITERATIONS 
       AND A TOTAL OF         16 INNER ITERATIONS.
    ------------------------------------------------

 NO OUTPUT CONTROL FOR STRESS PERIOD   70   TIME STEP    7
 
 SOLVING FOR HEAD 
                                                   Max.-Head-Change                         Max.-Flux-Residual
  Residual-Control   Outer-Iter.   Inner-Iter.     Column Row Layer    Maximum-Head-Change  Column Row Layer    Maximum-Flux-Residual          L2-NORM 
          0                 1           7            88   67     1      -0.1954156374E+02      31   61    2         0.9861877473E+05      0.5875073369E+06
          0                 2           5            88   67     1       0.1155056074E+01      31   61    2        -0.9951524476E+04      0.5980038151E+05
          0                 3           2            88   67     1       0.3375847262E-01      62   97    1         0.8207218621E+03      0.1002121644E+04
          0                 4           2            88   67     1       0.9864375382E-03      88   67    1         0.1322028538E+01      0.2363807625E+01

    ------------------------------------------------
       NWT REQUIRED            4 OUTER ITERATIONS 
       AND A TOTAL OF         16 INNER ITERATIONS.
    ------------------------------------------------

 NO OUTPUT CONTROL FOR STRESS PERIOD   70   TIME STEP    8
 
 SOLVING FOR HEAD 
                                                   Max.-Head-Change                         Max.-Flux-Residual
  Residual-Control   Outer-Iter.   Inner-Iter.     Column Row Layer    Maximum-Head-Change  Column Row Layer    Maximum-Flux-Residual          L2-NORM 
          0                 1           7            31   61     2       0.3023471169E+01      31   61    2         0.8593779147E+05      0.5675744269E+06
          0                 2           5            65    7     2      -0.3857576880E+01      31   61    2        -0.8651033238E+04      0.5789865015E+05
          0                 3           2            69   47     1      -0.2064139034E+00      69   47    1        -0.1050392610E+05      0.1051034559E+05
          0                 4           2            69   47     1      -0.1862088093E-01      69   47    1        -0.9471298895E+03      0.9474510738E+03
          0                 5           2            69   47     1      -0.1674537355E-02      69   47    1        -0.8516214194E+02      0.8518903632E+02

    ------------------------------------------------
       NWT REQUIRED            5 OUTER ITERATIONS 
       AND A TOTAL OF         18 INNER ITERATIONS.
    ------------------------------------------------

 NO OUTPUT CONTROL FOR STRESS PERIOD   70   TIME STEP    9
 
 SOLVING FOR HEAD 
                                                   Max.-Head-Change                         Max.-Flux-Residual
  Residual-Control   Outer-Iter.   Inner-Iter.     Column Row Layer    Maximum-Head-Change  Column Row Layer    Maximum-Flux-Residual          L2-NORM 
          0                 1           7            65    7     2      -0.8063841816E+01      31   61    2         0.7575626883E+05      0.5505955777E+06
          0                 2           5            69   47     1      -0.5374844516E+01      69   47    1        -0.2950153314E+05      0.6297735805E+05
          0                 3           3            69   47     1       0.4511506642E+00      60   62    2        -0.3403716236E+04      0.4385122615E+04
          0                 4           2            60   62     2       0.2053521382E-01      60   62    2         0.1250593973E+04      0.1250727432E+04
          0                 5           2            60   62     2      -0.6236643567E-02      60   62    2        -0.4166496108E+03      0.4166523642E+03

    ------------------------------------------------
       NWT REQUIRED            5 OUTER ITERATIONS 
       AND A TOTAL OF         19 INNER ITERATIONS.
    ------------------------------------------------

 NO OUTPUT CONTROL FOR STRESS PERIOD   70   TIME STEP   10
 
 SOLVING FOR HEAD 
                                                   Max.-Head-Change                         Max.-Flux-Residual
  Residual-Control   Outer-Iter.   Inner-Iter.     Column Row Layer    Maximum-Head-Change  Column Row Layer    Maximum-Flux-Residual          L2-NORM 
          0                 1           7            31   61     2       0.2422903173E+01      31   61    2         0.6749657822E+05      0.5371670813E+06
          0                 2           5            60   62     2       0.4464156983E+00      60   62    2         0.2203655981E+05      0.6001300773E+05
          0                 3           3            60   62     2      -0.4097539050E+00      60   62    2        -0.2268425723E+05      0.2269288393E+05
          0                 4           3            60   62     2       0.2813908788E+00      60   62    2         0.1709867898E+05      0.1709868446E+05
          0                 5           3            60   62     2      -0.2201479184E+00      60   62    2        -0.1466499504E+05      0.1466499724E+05
          0                 6           3            60   62     2       0.1191129482E+00      60   62    2         0.8689189213E+04      0.8689191379E+04
          0                 7           3            60   62     2      -0.6727508848E-01      60   62    2        -0.5365541590E+04      0.5365542165E+04
          0                 8           3            60   62     2       0.2507108537E-01      60   62    2         0.2183794708E+04      0.2183795265E+04
          0                 9           2            60   62     2      -0.7902438648E-02      60   62    2        -0.7507804814E+03      0.7507805287E+03

    ------------------------------------------------
       NWT REQUIRED            9 OUTER ITERATIONS 
       AND A TOTAL OF         32 INNER ITERATIONS.
    ------------------------------------------------

 NO OUTPUT CONTROL FOR STRESS PERIOD   70   TIME STEP   11
 
 SOLVING FOR HEAD 
                                                   Max.-Head-Change                         Max.-Flux-Residual
  Residual-Control   Outer-Iter.   Inner-Iter.     Column Row Layer    Maximum-Head-Change  Column Row Layer    Maximum-Flux-Residual          L2-NORM 
          0                 1           7            31   61     2       0.2199060194E+01      31   61    2         0.6072542242E+05      0.5245069578E+06
          0                 2           5            60   62     2       0.3834916298E+00      60   62    2         0.1886974952E+05      0.5693754432E+05
          0                 3           3            60   62     2      -0.4726645746E+00      60   62    2        -0.2614742370E+05      0.2750162736E+05
          0                 4           3            60   62     2       0.5611686347E+00      60   62    2         0.3406823312E+05      0.3407687949E+05
          0                 5           3            60   62     2      -0.4740386979E+00      60   62    2        -0.3156327294E+05      0.3156335347E+05
          0                 6           3            60   62     2       0.2692181747E+00      60   62    2         0.1962704383E+05      0.1962704918E+05
          0                 7           3            60   62     2      -0.1993493316E+00      60   62    2        -0.1588939365E+05      0.1588939475E+05
          0                 8           3            60   62     2       0.1033774154E+00      60   62    2         0.8998171550E+04      0.8998173041E+04
          0                 9           3            60   62     2      -0.5248469600E-01      60   62    2        -0.4979260510E+04      0.4979260779E+04
          0                10           2            60   62     2       0.1783683989E-01      60   62    2         0.1843736044E+04      0.1843736417E+04
          0                11           2            60   62     2      -0.4812006084E-02      60   62    2        -0.5404247589E+03      0.5404260474E+03

    ------------------------------------------------
       NWT REQUIRED           11 OUTER ITERATIONS 
       AND A TOTAL OF         37 INNER ITERATIONS.
    ------------------------------------------------

 OUTPUT CONTROL FOR STRESS PERIOD   70   TIME STEP   12
    SAVE BUDGET
 UBDSV1 SAVING "         STORAGE" ON UNIT  39 AT TIME STEP 12, STRESS PERIOD  70
 UBDSV2 SAVING "   CONSTANT HEAD" ON UNIT  39 AT TIME STEP 12, STRESS PERIOD  70
 UBDSV1 SAVING "FLOW RIGHT FACE " ON UNIT  39 AT TIME STEP 12, STRESS PERIOD  70
 UBDSV1 SAVING "FLOW FRONT FACE " ON UNIT  39 AT TIME STEP 12, STRESS PERIOD  70
 UBDSV1 SAVING "FLOW LOWER FACE " ON UNIT  39 AT TIME STEP 12, STRESS PERIOD  70
 UBDSV4 SAVING "           WELLS" ON UNIT  39 AT TIME STEP 12, STRESS PERIOD  70
 UBDSV3 SAVING "              ET" ON UNIT  39 AT TIME STEP 12, STRESS PERIOD  70
 UBDSV3 SAVING "        RECHARGE" ON UNIT  39 AT TIME STEP 12, STRESS PERIOD  70
1
  VOLUMETRIC BUDGET FOR ENTIRE MODEL AT END OF TIME STEP   12, STRESS PERIOD  70
  ------------------------------------------------------------------------------

     CUMULATIVE VOLUMES      L**3       RATES FOR THIS TIME STEP      L**3/T
     ------------------                 ------------------------

           IN:                                      IN:
           ---                                      ---
             STORAGE =444075147264.0000               STORAGE =    12265395.0000
       CONSTANT HEAD = 48780988416.0000         CONSTANT HEAD =     2403230.7500
               WELLS = 31336695808.0000                 WELLS =     1225642.0000
                  ET =           0.0000                    ET =           0.0000
            RECHARGE =562203131904.0000              RECHARGE =    32214646.0000

            TOTAL IN =       1.0864E+12              TOTAL IN =    48108916.0000

          OUT:                                     OUT:
          ----                                     ----
             STORAGE =127410405376.0000               STORAGE =    12715151.0000
       CONSTANT HEAD = 74334699520.0000         CONSTANT HEAD =     2266455.5000
               WELLS =860571041792.0000                 WELLS =    32900422.0000
                  ET = 24079071232.0000                    ET =      226788.1250
            RECHARGE =           0.0000              RECHARGE =           0.0000

           TOTAL OUT =       1.0864E+12             TOTAL OUT =    48108816.0000

            IN - OUT =      851968.0000              IN - OUT =         100.0000

 PERCENT DISCREPANCY =           0.00     PERCENT DISCREPANCY =           0.00






         TIME SUMMARY AT END OF TIME STEP   12 IN STRESS PERIOD   70
                    SECONDS     MINUTES      HOURS       DAYS        YEARS
                    -----------------------------------------------------------
   TIME STEP LENGTH 2.62800E+06  43800.      730.00      30.417     8.32763E-02
 STRESS PERIOD TIME 3.15360E+07 5.25600E+05  8760.0      365.00     0.99932    
         TOTAL TIME 2.20907E+09 3.68178E+07 6.13630E+05  25568.      70.001    
1
1
                            STRESS PERIOD NO.   71, LENGTH =   365.0000    
                            -----------------------------------------------

                              NUMBER OF TIME STEPS =    12

                               MULTIPLIER FOR DELT =     1.000

                            INITIAL TIME STEP SIZE =   30.41667    

   1471 WELLS

 REUSING SURF FROM LAST STRESS PERIOD

 REUSING EVTR FROM LAST STRESS PERIOD

 REUSING EXDP FROM LAST STRESS PERIOD



                           RECHARGE
 READING ON UNIT   16 WITH FORMAT: (15F5.0)            


     63 TIME-VARIANT SPECIFIED-HEAD CELLS
 
 SOLVING FOR HEAD 
                                                   Max.-Head-Change                         Max.-Flux-Residual
  Residual-Control   Outer-Iter.   Inner-Iter.     Column Row Layer    Maximum-Head-Change  Column Row Layer    Maximum-Flux-Residual          L2-NORM 
          0                 1           8            32   61     1       0.3960787967E+02      29   52    2        -0.8985737859E+06      0.2413093202E+07
          0                 2           7            32   61     1      -0.2393898110E+02      32   61    1        -0.1053650166E+07      0.1248513848E+07
          0                 3           3            32   61     1      -0.6229197326E+00      32   61    1        -0.2644327225E+05      0.3117432597E+05
          0                 4           2            33   61     1       0.4174068675E-01      32   62    1         0.6080652322E+03      0.1172028049E+04
          0                 5           2            33   61     1       0.3843901969E-02      32   62    1         0.5585914904E+02      0.1066457062E+03

    ------------------------------------------------
       NWT REQUIRED            5 OUTER ITERATIONS 
       AND A TOTAL OF         22 INNER ITERATIONS.
    ------------------------------------------------

 NO OUTPUT CONTROL FOR STRESS PERIOD   71   TIME STEP    1

 INTERPOLATION FOR HEAD OBS#  641, ID 3014-71-54   CHANGED BECAUSE AT LEAST ONE
 NEIGHBORING CELL REQUIRED FOR INTERPOLATION IS DRY OR INACTIVE (OBS2BAS7SE)

 INTERPOLATION FOR HEAD OBS# 1337, ID 2852-71-56   CHANGED BECAUSE AT LEAST ONE
 NEIGHBORING CELL REQUIRED FOR INTERPOLATION IS DRY OR INACTIVE (OBS2BAS7SE)

 INTERPOLATION FOR HEAD OBS# 2185, ID 2355-71-47   CHANGED BECAUSE AT LEAST ONE
 NEIGHBORING CELL REQUIRED FOR INTERPOLATION IS DRY OR INACTIVE (OBS2BAS7SE)

 INTERPOLATION FOR HEAD OBS# 3203, ID 2443-71-42   CHANGED BECAUSE AT LEAST ONE
 NEIGHBORING CELL REQUIRED FOR INTERPOLATION IS DRY OR INACTIVE (OBS2BAS7SE)

 INTERPOLATION FOR HEAD OBS# 3615, ID 1370-71-50   CHANGED BECAUSE AT LEAST ONE
 NEIGHBORING CELL REQUIRED FOR INTERPOLATION IS DRY OR INACTIVE (OBS2BAS7SE)

 INTERPOLATION FOR HEAD OBS# 7740, ID 92-71-40     CHANGED BECAUSE AT LEAST ONE
 NEIGHBORING CELL REQUIRED FOR INTERPOLATION IS DRY OR INACTIVE (OBS2BAS7SE)
 
 SOLVING FOR HEAD 
                                                   Max.-Head-Change                         Max.-Flux-Residual
  Residual-Control   Outer-Iter.   Inner-Iter.     Column Row Layer    Maximum-Head-Change  Column Row Layer    Maximum-Flux-Residual          L2-NORM 
          0                 1           8            29   52     2      -0.1148837312E+02      29   52    2        -0.4135808682E+06      0.1243876028E+07
          0                 2           5            29   52     2       0.9459663380E+00      29   52    2         0.3740139459E+05      0.1223999436E+06
          0                 3           2            23   25     2       0.1034667854E-01      23   25    2         0.1345006798E+04      0.1355501301E+04
          0                 4           2            23   25     2       0.9311155580E-03      23   25    2         0.1212843832E+03      0.1213535693E+03

    ------------------------------------------------
       NWT REQUIRED            4 OUTER ITERATIONS 
       AND A TOTAL OF         17 INNER ITERATIONS.
    ------------------------------------------------

 NO OUTPUT CONTROL FOR STRESS PERIOD   71   TIME STEP    2

 INTERPOLATION FOR HEAD OBS# 1407, ID 2827-71-61   CHANGED BECAUSE AT LEAST ONE
 NEIGHBORING CELL REQUIRED FOR INTERPOLATION IS DRY OR INACTIVE (OBS2BAS7SE)

 INTERPOLATION FOR HEAD OBS# 3704, ID 1479-71-70   CHANGED BECAUSE AT LEAST ONE
 NEIGHBORING CELL REQUIRED FOR INTERPOLATION IS DRY OR INACTIVE (OBS2BAS7SE)

 INTERPOLATION FOR HEAD OBS# 3717, ID 1471-71-70   CHANGED BECAUSE AT LEAST ONE
 NEIGHBORING CELL REQUIRED FOR INTERPOLATION IS DRY OR INACTIVE (OBS2BAS7SE)

 INTERPOLATION FOR HEAD OBS# 6255, ID 1067-71-63   CHANGED BECAUSE AT LEAST ONE
 NEIGHBORING CELL REQUIRED FOR INTERPOLATION IS DRY OR INACTIVE (OBS2BAS7SE)

 INTERPOLATION FOR HEAD OBS# 6256, ID 1066-71-63   CHANGED BECAUSE AT LEAST ONE
 NEIGHBORING CELL REQUIRED FOR INTERPOLATION IS DRY OR INACTIVE (OBS2BAS7SE)

 INTERPOLATION FOR HEAD OBS# 7385, ID 425-71-61    CHANGED BECAUSE AT LEAST ONE
 NEIGHBORING CELL REQUIRED FOR INTERPOLATION IS DRY OR INACTIVE (OBS2BAS7SE)
 
 SOLVING FOR HEAD 
                                                   Max.-Head-Change                         Max.-Flux-Residual
  Residual-Control   Outer-Iter.   Inner-Iter.     Column Row Layer    Maximum-Head-Change  Column Row Layer    Maximum-Flux-Residual          L2-NORM 
          0                 1           7            32   61     1       0.7828758437E+01      29   52    2        -0.2418628963E+06      0.9827932934E+06
          0                 2           5            32   61     1      -0.7311554583E+00      32   61    1        -0.2317245765E+05      0.9944148553E+05
          0                 3           2            23   49     3      -0.5695337024E-02      23   25    2        -0.5528893752E+03      0.6946925721E+03

    ------------------------------------------------
       NWT REQUIRED            3 OUTER ITERATIONS 
       AND A TOTAL OF         14 INNER ITERATIONS.
    ------------------------------------------------

 NO OUTPUT CONTROL FOR STRESS PERIOD   71   TIME STEP    3
 
 SOLVING FOR HEAD 
                                                   Max.-Head-Change                         Max.-Flux-Residual
  Residual-Control   Outer-Iter.   Inner-Iter.     Column Row Layer    Maximum-Head-Change  Column Row Layer    Maximum-Flux-Residual          L2-NORM 
          0                 1           7            32   61     1       0.6893103086E+01      32   61    1         0.1951914153E+06      0.8561150615E+06
          0                 2           5            31   62     1      -0.2179571504E+01      31   62    1        -0.8905271088E+05      0.1242480814E+06
          0                 3           2            90   67     2      -0.2258729555E-01      32   67    3        -0.3401959740E+03      0.5712187511E+03
          0                 4           1            85   85     2      -0.2632055390E-03      69   97    2        -0.1282410989E+03      0.1284753097E+03

    ------------------------------------------------
       NWT REQUIRED            4 OUTER ITERATIONS 
       AND A TOTAL OF         15 INNER ITERATIONS.
    ------------------------------------------------

 NO OUTPUT CONTROL FOR STRESS PERIOD   71   TIME STEP    4
 
 SOLVING FOR HEAD 
                                                   Max.-Head-Change                         Max.-Flux-Residual
  Residual-Control   Outer-Iter.   Inner-Iter.     Column Row Layer    Maximum-Head-Change  Column Row Layer    Maximum-Flux-Residual          L2-NORM 
          0                 1           7            32   61     1       0.6079045126E+01      32   61    1         0.1719167596E+06      0.7770775143E+06
          0                 2           5            32   61     1      -0.5613557558E+00      32   61    1        -0.1760342535E+05      0.7843552501E+05
          0                 3           2            39   74     2      -0.8182010179E-01      39   74    2        -0.2691237409E+04      0.2788460871E+04
          0                 4           2            39   74     2      -0.7371672333E-02      69   97    2        -0.2460524925E+03      0.3454467950E+03

    ------------------------------------------------
       NWT REQUIRED            4 OUTER ITERATIONS 
       AND A TOTAL OF         16 INNER ITERATIONS.
    ------------------------------------------------

 NO OUTPUT CONTROL FOR STRESS PERIOD   71   TIME STEP    5
 
 SOLVING FOR HEAD 
                                                   Max.-Head-Change                         Max.-Flux-Residual
  Residual-Control   Outer-Iter.   Inner-Iter.     Column Row Layer    Maximum-Head-Change  Column Row Layer    Maximum-Flux-Residual          L2-NORM 
          0                 1           7            32   61     1       0.5381729519E+01      32   61    1         0.1517589303E+06      0.7228329144E+06
          0                 2           5            32   62     1      -0.2271270545E+01      32   62    1        -0.9802204018E+05      0.1468938629E+06
          0                 3           3            32   61     2      -0.2135972051E+00      32   61    2        -0.7655931004E+04      0.8192802107E+04
          0                 4           2            39   74     2       0.1494150897E-02      69   97    2         0.3644126845E+02      0.4977108951E+02

    ------------------------------------------------
       NWT REQUIRED            4 OUTER ITERATIONS 
       AND A TOTAL OF         17 INNER ITERATIONS.
    ------------------------------------------------

 NO OUTPUT CONTROL FOR STRESS PERIOD   71   TIME STEP    6
 
 SOLVING FOR HEAD 
                                                   Max.-Head-Change                         Max.-Flux-Residual
  Residual-Control   Outer-Iter.   Inner-Iter.     Column Row Layer    Maximum-Head-Change  Column Row Layer    Maximum-Flux-Residual          L2-NORM 
          0                 1           7            32   61     2       0.6126289184E+01      32   61    1         0.1582516996E+06      0.6830933070E+06
          0                 2           5            32   61     2      -0.5632197361E+00      32   61    1        -0.1653849763E+05      0.6855430861E+05
          0                 3           2            67   52     2      -0.4292075366E-02      67   52    2        -0.1667879062E+03      0.1945477793E+03

    ------------------------------------------------
       NWT REQUIRED            3 OUTER ITERATIONS 
       AND A TOTAL OF         14 INNER ITERATIONS.
    ------------------------------------------------

 NO OUTPUT CONTROL FOR STRESS PERIOD   71   TIME STEP    7
 
 SOLVING FOR HEAD 
                                                   Max.-Head-Change                         Max.-Flux-Residual
  Residual-Control   Outer-Iter.   Inner-Iter.     Column Row Layer    Maximum-Head-Change  Column Row Layer    Maximum-Flux-Residual          L2-NORM 
          0                 1           7            32   61     1       0.4894112224E+01      32   61    1         0.1470904491E+06      0.6556787382E+06
          0                 2           5            32   61     1      -0.4518323297E+00      32   61    1        -0.1507696628E+05      0.6602698797E+05
          0                 3           2            85   85     2      -0.1705634029E-02      58  118    1         0.1332483067E+02      0.5820775744E+02

    ------------------------------------------------
       NWT REQUIRED            3 OUTER ITERATIONS 
       AND A TOTAL OF         14 INNER ITERATIONS.
    ------------------------------------------------

 NO OUTPUT CONTROL FOR STRESS PERIOD   71   TIME STEP    8
 
 SOLVING FOR HEAD 
                                                   Max.-Head-Change                         Max.-Flux-Residual
  Residual-Control   Outer-Iter.   Inner-Iter.     Column Row Layer    Maximum-Head-Change  Column Row Layer    Maximum-Flux-Residual          L2-NORM 
          0                 1           7            32   61     1       0.4150199017E+01      32   61    1         0.1221965865E+06      0.6291255599E+06
          0                 2           5            32   61     1      -0.3807497173E+00      26   59    2        -0.1825510759E+05      0.6658944713E+05
          0                 3           2            40   62     3       0.1664537308E-01      40   62    3         0.5252375742E+03      0.5304077544E+03
          0                 4           2            40   62     3       0.1497895856E-02      40   62    3         0.4739399449E+02      0.4748777162E+02

    ------------------------------------------------
       NWT REQUIRED            4 OUTER ITERATIONS 
       AND A TOTAL OF         16 INNER ITERATIONS.
    ------------------------------------------------

 NO OUTPUT CONTROL FOR STRESS PERIOD   71   TIME STEP    9
 
 SOLVING FOR HEAD 
                                                   Max.-Head-Change                         Max.-Flux-Residual
  Residual-Control   Outer-Iter.   Inner-Iter.     Column Row Layer    Maximum-Head-Change  Column Row Layer    Maximum-Flux-Residual          L2-NORM 
          0                 1           7            33   61     1       0.3713262525E+01      32   61    1         0.1036924776E+06      0.6076447057E+06
          0                 2           5            31   61     2       0.9172490650E+00      31   61    2         0.3348033336E+05      0.7071601967E+05
          0                 3           2            31   61     2      -0.8345265312E-01      31   61    2        -0.3059784306E+04      0.3357833865E+04
          0                 4           1            85   85     2      -0.2458963646E-03      30   61    2         0.5009579957E+00      0.2589007568E+01

    ------------------------------------------------
       NWT REQUIRED            4 OUTER ITERATIONS 
       AND A TOTAL OF         15 INNER ITERATIONS.
    ------------------------------------------------

 NO OUTPUT CONTROL FOR STRESS PERIOD   71   TIME STEP   10
 
 SOLVING FOR HEAD 
                                                   Max.-Head-Change                         Max.-Flux-Residual
  Residual-Control   Outer-Iter.   Inner-Iter.     Column Row Layer    Maximum-Head-Change  Column Row Layer    Maximum-Flux-Residual          L2-NORM 
          0                 1           7            31   61     2       0.4629302415E+01      32   61    1         0.9175626813E+05      0.5906166080E+06
          0                 2           5            31   61     2      -0.4216707919E+00      31   61    1        -0.9230761706E+04      0.5915223729E+05
          0                 3           2            29   65     2      -0.2858633803E-01      73   55    2        -0.6340406883E+02      0.1132234829E+03
          0                 4           1            29   65     2      -0.3734862984E-03      29   65    2        -0.8072794331E+00      0.1796116531E+01

    ------------------------------------------------
       NWT REQUIRED            4 OUTER ITERATIONS 
       AND A TOTAL OF         15 INNER ITERATIONS.
    ------------------------------------------------

 NO OUTPUT CONTROL FOR STRESS PERIOD   71   TIME STEP   11

 INTERPOLATION FOR HEAD OBS# 2186, ID 2355-71-350  CHANGED BECAUSE AT LEAST ONE
 NEIGHBORING CELL REQUIRED FOR INTERPOLATION IS DRY OR INACTIVE (OBS2BAS7SE)

 INTERPOLATION FOR HEAD OBS# 3616, ID 1370-71-365  CHANGED BECAUSE AT LEAST ONE
 NEIGHBORING CELL REQUIRED FOR INTERPOLATION IS DRY OR INACTIVE (OBS2BAS7SE)

 INTERPOLATION FOR HEAD OBS# 3705, ID 1479-71-365  CHANGED BECAUSE AT LEAST ONE
 NEIGHBORING CELL REQUIRED FOR INTERPOLATION IS DRY OR INACTIVE (OBS2BAS7SE)

 INTERPOLATION FOR HEAD OBS# 3718, ID 1471-71-365  CHANGED BECAUSE AT LEAST ONE
 NEIGHBORING CELL REQUIRED FOR INTERPOLATION IS DRY OR INACTIVE (OBS2BAS7SE)

 INTERPOLATION FOR HEAD OBS# 3778, ID 1405-71-365  CHANGED BECAUSE AT LEAST ONE
 NEIGHBORING CELL REQUIRED FOR INTERPOLATION IS DRY OR INACTIVE (OBS2BAS7SE)

 INTERPOLATION FOR HEAD OBS# 5436, ID 846-71-365   CHANGED BECAUSE AT LEAST ONE
 NEIGHBORING CELL REQUIRED FOR INTERPOLATION IS DRY OR INACTIVE (OBS2BAS7SE)

 INTERPOLATION FOR HEAD OBS# 7383, ID 451-71-336   CHANGED BECAUSE AT LEAST ONE
 NEIGHBORING CELL REQUIRED FOR INTERPOLATION IS DRY OR INACTIVE (OBS2BAS7SE)
 
 SOLVING FOR HEAD 
                                                   Max.-Head-Change                         Max.-Flux-Residual
  Residual-Control   Outer-Iter.   Inner-Iter.     Column Row Layer    Maximum-Head-Change  Column Row Layer    Maximum-Flux-Residual          L2-NORM 
          0                 1           7            31   61     1       0.3311773743E+01      31   61    1         0.9567255239E+05      0.5790241075E+06
          0                 2           5            31   60     1      -0.1742488017E+01      31   60    1        -0.7733064366E+05      0.9995942212E+05
          0                 3           2            27   62     1      -0.3048251609E-01      32   70    3        -0.3648530086E+03      0.5142204828E+03
          0                 4           1            85   85     2      -0.2496374536E-03      31   59    1         0.3582859807E+01      0.5780748931E+01

    ------------------------------------------------
       NWT REQUIRED            4 OUTER ITERATIONS 
       AND A TOTAL OF         15 INNER ITERATIONS.
    ------------------------------------------------

 OUTPUT CONTROL FOR STRESS PERIOD   71   TIME STEP   12
    SAVE BUDGET
    SAVE HEAD FOR LAYERS:   1  2  3
 UBDSV1 SAVING "         STORAGE" ON UNIT  39 AT TIME STEP 12, STRESS PERIOD  71
 UBDSV2 SAVING "   CONSTANT HEAD" ON UNIT  39 AT TIME STEP 12, STRESS PERIOD  71
 UBDSV1 SAVING "FLOW RIGHT FACE " ON UNIT  39 AT TIME STEP 12, STRESS PERIOD  71
 UBDSV1 SAVING "FLOW FRONT FACE " ON UNIT  39 AT TIME STEP 12, STRESS PERIOD  71
 UBDSV1 SAVING "FLOW LOWER FACE " ON UNIT  39 AT TIME STEP 12, STRESS PERIOD  71
 UBDSV4 SAVING "           WELLS" ON UNIT  39 AT TIME STEP 12, STRESS PERIOD  71
 UBDSV3 SAVING "              ET" ON UNIT  39 AT TIME STEP 12, STRESS PERIOD  71
 UBDSV3 SAVING "        RECHARGE" ON UNIT  39 AT TIME STEP 12, STRESS PERIOD  71

 HEAD WILL BE SAVED ON UNIT   31 AT END OF TIME STEP   12, STRESS PERIOD   71
1
  VOLUMETRIC BUDGET FOR ENTIRE MODEL AT END OF TIME STEP   12, STRESS PERIOD  71
  ------------------------------------------------------------------------------

     CUMULATIVE VOLUMES      L**3       RATES FOR THIS TIME STEP      L**3/T
     ------------------                 ------------------------

           IN:                                      IN:
           ---                                      ---
             STORAGE =447512838144.0000               STORAGE =     7854654.5000
       CONSTANT HEAD = 49716314112.0000         CONSTANT HEAD =     2612156.7500
               WELLS = 31771863040.0000                 WELLS =     1192222.0000
                  ET =           0.0000                    ET =           0.0000
            RECHARGE =576598769664.0000              RECHARGE =    39439160.0000

            TOTAL IN =       1.1056E+12              TOTAL IN =    51098196.0000

          OUT:                                     OUT:
          ----                                     ----
             STORAGE =133477728256.0000               STORAGE =    15086452.0000
       CONSTANT HEAD = 75085570048.0000         CONSTANT HEAD =     2018101.3750
               WELLS =872827584512.0000                 WELLS =    33579860.0000
                  ET = 24207702016.0000                    ET =      413801.2188
            RECHARGE =           0.0000              RECHARGE =           0.0000

           TOTAL OUT =       1.1056E+12             TOTAL OUT =    51098212.0000

            IN - OUT =     1179648.0000              IN - OUT =         -16.0000

 PERCENT DISCREPANCY =           0.00     PERCENT DISCREPANCY =          -0.00






         TIME SUMMARY AT END OF TIME STEP   12 IN STRESS PERIOD   71
                    SECONDS     MINUTES      HOURS       DAYS        YEARS
                    -----------------------------------------------------------
   TIME STEP LENGTH 2.62800E+06  43800.      730.00      30.417     8.32763E-02
 STRESS PERIOD TIME 3.15360E+07 5.25600E+05  8760.0      365.00     0.99932    
         TOTAL TIME 2.24060E+09 3.73434E+07 6.22390E+05  25933.      71.000    
1

 HEAD AND DRAWDOWN OBSERVATIONS
 OBSERVATION       OBSERVED           SIMULATED
   NAME              VALUE              VALUE             DIFFERENCE
 --------------------------------------------------------------------
 3522-15-337     2965.0000000        2949.3220215        15.677978516    
 3489-20-74      2968.0000000        2944.7143555        23.285644531    
 3485-19-34      2966.0000000        2942.2077637        23.792236328    
 3465-20-300     2968.0000000        2932.3417969        35.658203125    
 3415-15-154     2955.0000000        2903.3369141        51.663085938    
 3314-43-7       2830.0000000        2799.3371582        30.662841797    
 3241-5-82       2709.0000000        2709.7758789      -0.77587890625    
 3384-7-41       1626.0000000        1641.2978516       -15.297851562    
 3384-12-10      1613.0000000        1620.9541016       -7.9541015625    
 3384-16-340     1572.0000000        1588.8856201       -16.885620117    
 3384-21-335     1549.0000000        1559.7048340       -10.704833984    
 3384-27-13      1531.0000000        1540.3896484       -9.3896484375    
 3384-32-5       1517.0000000        1525.1370850       -8.1370849609    
 3384-36-349     1499.0000000        1506.8962402       -7.8962402344    
 3400-55-321     1558.0000000        1591.5769043       -33.576904297    
 3400-60-312     1568.0000000        1595.4116211       -27.411621094    
 3400-65-363     1583.0000000        1603.9815674       -20.981567383    
 3400-71-349     1600.0000000        1614.9233398       -14.923339844    
 3401-55-321     1613.0000000        1589.5820312        23.417968750    
 3401-60-312     1621.0000000        1592.0870361        28.912963867    
 3401-65-363     1631.0000000        1598.9407959        32.059204102    
 3401-71-349     1650.0000000        1610.2326660        39.767333984    
 3397-11-313     1674.0000000        1687.0164795       -13.016479492    
 3361-21-339     1555.0000000        1559.3499756       -4.3499755859    
 3361-32-5       1524.0000000        1524.8642578      -0.86425781250    
 3346-16-340     1573.0000000        1588.4226074       -15.422607422    
 3346-21-339     1537.0000000        1558.5996094       -21.599609375    
 3346-32-5       1495.0000000        1520.6813965       -25.681396484    
 3346-37-349     1474.0000000        1502.6145020       -28.614501953    
 3346-49-54      1506.0000000        1522.6297607       -16.629760742    
 3346-60-319     1517.0000000        1540.1250000       -23.125000000    
 3346-65-298     1529.0000000        1558.8447266       -29.844726562    
 3346-71-13      1544.0000000        1568.3210449       -24.321044922    
 3376-6-41       1665.0000000        1675.4836426       -10.483642578    
 3376-12-46      1648.0000000        1657.8184814       -9.8184814453    
 3376-16-362     1635.0000000        1632.3627930        2.6372070312    
 3376-21-336     1591.0000000        1606.3519287       -15.351928711    
 3376-27-12      1561.0000000        1584.6372070       -23.637207031    
 3376-38-1       1527.0000000        1550.2867432       -23.286743164    
 3327-56-26      1579.0000000        1577.1972656        1.8027343750    
 3327-66-18      1601.0000000        1600.2624512       0.73754882812    
 3306-1-32       1688.0000000        1693.2593994       -5.2593994141    
 3299-38-41      1546.0000000        1574.1914062       -28.191406250    
 3311-15-337     2982.0000000        2930.3015137        51.698486328    
 3313-32-7       1579.0000000        1607.3458252       -28.345825195    
 3313-38-1       1560.0000000        1590.5108643       -30.510864258    
 3313-56-26      1601.0000000        1594.7508545        6.2491455078    
 3313-66-18      1626.0000000        1614.3543701        11.645629883    
 3303-56-26      1600.0000000        1592.1049805        7.8950195312    
 3303-66-18      1624.0000000        1614.6616211        9.3383789062    
 3302-12-32      1680.0000000        1691.5745850       -11.574584961    
 3302-56-26      1606.0000000        1600.6870117        5.3129882812    
 3302-66-18      1633.0000000        1619.6945801        13.305419922    
 3320-2-305      1680.0000000        1682.5056152       -2.5056152344    
 3324-26-339     1550.0000000        1568.6776123       -18.677612305    
 3312-16-335     1604.0000000        1624.8027344       -20.802734375    
 3312-21-335     1576.0000000        1596.4531250       -20.453125000    
 3312-32-1       1537.0000000        1555.9320068       -18.932006836    
 3312-36-51      1523.0000000        1542.5478516       -19.547851562    
 3294-1-60       1692.0000000        1694.9517822       -2.9517822266    
 3291-16-362     1650.0000000        1655.2617188       -5.2617187500    
 3288-12-32      1671.0000000        1667.4632568        3.5367431641    
 3288-21-335     1622.0000000        1619.1917725        2.8082275391    
 3288-32-7       1602.0000000        1582.6748047        19.325195312    
 3282-21-336     1628.0000000        1639.2773438       -11.277343750    
 3282-32-7       1604.0000000        1603.4423828       0.55761718750    
 3282-38-10      1584.0000000        1588.4299316       -4.4299316406    
 3285-5-179      1699.0000000        1713.2597656       -14.259765625    
 3285-11-25      1690.0000000        1704.9826660       -14.982666016    
 3285-16-341     1666.0000000        1686.2380371       -20.238037109    
 3285-21-336     1639.0000000        1660.2954102       -21.295410156    
 3279-12-39      1679.0000000        1703.1955566       -24.195556641    
 3279-16-362     1650.0000000        1688.1021729       -38.102172852    
 3279-21-341     1639.0000000        1662.1527100       -23.152709961    
 3279-27-28      1624.0000000        1644.8035889       -20.803588867    
 3281-21-336     1635.0000000        1661.5554199       -26.555419922    
 3281-37-350     1573.0000000        1610.7481689       -37.748168945    
 3268-21-274     1652.0000000        1676.2788086       -24.278808594    
 3268-38-6       1576.0000000        1626.6767578       -50.676757812    
 3259-16-348     1684.0000000        1708.1475830       -24.147583008    
 3259-32-7       1619.0000000        1648.2341309       -29.234130859    
 3259-36-350     1606.0000000        1634.8153076       -28.815307617    
 3237-1-365      1723.0000000        1739.6075439       -16.607543945    
 3237-3-355      1721.0000000        1737.1074219       -16.107421875    
 3237-12-59      1713.0000000        1728.3828125       -15.382812500    
 3237-12-59      1713.0000000        1728.3828125       -15.382812500    
 3234-6-284      1719.0000000        1737.3345947       -18.334594727    
 3234-12-32      1710.0000000        1728.6530762       -18.653076172    
 3234-16-348     1689.0000000        1716.3190918       -27.319091797    
 3231-21-341     1661.0000000        1689.2547607       -28.254760742    
 3231-27-12      1642.0000000        1672.3673096       -30.367309570    
 3231-38-3       1595.0000000        1638.4858398       -43.485839844    
 3382-48-363     1604.0000000        1600.1606445        3.8393554688    
 3383-48-363     1619.0000000        1600.1606445        18.839355469    
 3363-56-23      1632.0000000        1609.4890137        22.510986328    
 3363-66-18      1646.0000000        1617.9521484        28.047851562    
 3364-11-342     1694.0000000        1701.5782471       -7.5782470703    
 3364-16-362     1671.0000000        1686.6605225       -15.660522461    
 3364-21-341     1646.0000000        1669.7054443       -23.705444336    
 3364-27-28      1639.0000000        1650.1890869       -11.189086914    
 3364-32-4       1621.0000000        1634.2359619       -13.235961914    
 3364-36-349     1617.0000000        1619.4597168       -2.4597167969    
 3364-43-19      1616.0000000        1605.9127197        10.087280273    
 3364-49-54      1622.0000000        1599.5954590        22.404541016    
 3364-56-25      1626.0000000        1605.7475586        20.252441406    
 3364-60-319     1628.0000000        1608.2906494        19.709350586    
 3364-65-298     1635.0000000        1614.4393311        20.560668945    
 3364-71-13      1648.0000000        1624.2835693        23.716430664    
 3364-71-365     1652.0000000        1625.9760742        26.023925781    
 3370-56-25      1623.0000000        1600.9855957        22.014404297    
 3370-61-72      1628.0000000        1604.2901611        23.709838867    
 3370-66-18      1637.0000000        1610.6739502        26.326049805    
 3353-21-335     1659.0000000        1670.7635498       -11.763549805    
 3353-27-12      1646.0000000        1651.4493408       -5.4493408203    
 3353-56-25      1627.0000000        1607.7810059        19.218994141    
 3353-66-18      1635.0000000        1617.3839111        17.616088867    
 3351-56-25      1628.0000000        1609.0472412        18.952758789    
 3351-61-72      1629.0000000        1611.9149170        17.085083008    
 3351-66-18      1639.0000000        1618.2740479        20.725952148    
 3310-56-23      1643.0000000        1635.9672852        7.0327148438    
 3307-56-23      1644.0000000        1639.2003174        4.7996826172    
 3307-61-73      1649.0000000        1638.1558838        10.844116211    
 3307-66-20      1676.0000000        1645.1245117        30.875488281    
 3292-56-25      1630.0000000        1624.8728027        5.1271972656    
 3292-61-73      1638.0000000        1627.5019531        10.498046875    
 3292-66-19      1663.0000000        1636.9914551        26.008544922    
 3278-11-296     1706.0000000        1722.5009766       -16.500976562    
 3278-16-343     1693.0000000        1707.9085693       -14.908569336    
 3278-21-340     1664.0000000        1684.8953857       -20.895385742    
 3278-27-12      1658.0000000        1667.3648682       -9.3648681641    
 3278-32-4       1650.0000000        1650.8988037      -0.89880371094    
 3278-36-350     1648.0000000        1636.1921387        11.807861328    
 3278-43-19      1650.0000000        1627.4008789        22.599121094    
 3278-49-54      1656.0000000        1630.3864746        25.613525391    
 3278-56-25      1656.0000000        1636.5534668        19.446533203    
 3278-60-319     1660.0000000        1637.4832764        22.516723633    
 3278-65-301     1670.0000000        1644.9473877        25.052612305    
 3278-71-13      1684.0000000        1655.7854004        28.214599609    
 3278-71-365     1686.0000000        1657.3930664        28.606933594    
 3290-56-25      1638.0000000        1633.3631592        4.6368408203    
 3290-61-73      1647.0000000        1634.9045410        12.095458984    
 3290-66-19      1671.0000000        1642.4986572        28.501342773    
 3250-12-32      1737.0000000        1746.0156250       -9.0156250000    
 3250-16-363     1711.0000000        1730.6149902       -19.614990234    
 3250-21-335     1688.0000000        1708.5115967       -20.511596680    
 3250-32-7       1652.0000000        1674.9017334       -22.901733398    
 3250-36-352     1632.0000000        1659.1458740       -27.145874023    
 3308-56-25      1672.0000000        1665.3347168        6.6652832031    
 3308-61-73      1673.0000000        1664.8675537        8.1324462891    
 3308-66-20      1698.0000000        1669.9000244        28.099975586    
 3249-16-363     1709.0000000        1729.5886230       -20.588623047    
 3249-21-340     1688.0000000        1707.1434326       -19.143432617    
 3249-36-352     1660.0000000        1657.9946289        2.0053710938    
 3249-56-25      1688.0000000        1664.2667236        23.733276367    
 3249-61-73      1698.0000000        1663.6762695        34.323730469    
 3233-3-355      1744.0000000        1760.6513672       -16.651367188    
 3233-6-341      1743.0000000        1760.2595215       -17.259521484    
 3233-12-59      1737.0000000        1749.8741455       -12.874145508    
 3233-16-311     1725.0000000        1733.9256592       -8.9256591797    
 3230-16-348     1722.0000000        1734.9023438       -12.902343750    
 3230-21-340     1705.0000000        1713.2351074       -8.2351074219    
 3230-27-1       1694.0000000        1696.1918945       -2.1918945312    
 3230-32-7       1702.0000000        1679.7453613        22.254638672    
 3230-36-352     1682.0000000        1663.5319824        18.468017578    
 3230-56-25      1711.0000000        1673.3989258        37.601074219    
 3230-61-72      1716.0000000        1672.4371338        43.562866211    
 3229-17-4       1729.0000000        1735.7679443       -6.7679443359    
 3247-61-73      1711.0000000        1671.3635254        39.636474609    
 3247-66-20      1715.0000000        1675.5721436        39.427856445    
 3368-56-25      1668.0000000        1664.0446777        3.9553222656    
 3333-12-10      1744.0000000        1756.7839355       -12.783935547    
 3333-16-343     1741.0000000        1751.6644287       -10.664428711    
 3333-32-85      1693.0000000        1712.9720459       -19.972045898    
 3333-35-53      1685.0000000        1704.5091553       -19.509155273    
 3332-49-54      1671.0000000        1672.4703369       -1.4703369141    
 3332-56-26      1674.0000000        1666.7341309        7.2658691406    
 3332-60-319     1679.0000000        1665.7270508        13.272949219    
 3332-65-298     1687.0000000        1665.6398926        21.360107422    
 3332-71-13      1699.0000000        1669.0051270        29.994873047    
 3332-71-365     1701.0000000        1670.0798340        30.920166016    
 3330-56-25      1659.0000000        1663.3184814       -4.3184814453    
 3315-48-300     1659.0000000        1661.4160156       -2.4160156250    
 3315-55-321     1664.0000000        1659.2080078        4.7919921875    
 3315-60-312     1666.0000000        1659.2053223        6.7946777344    
 3315-65-363     1676.0000000        1660.8957520        15.104248047    
 3315-71-351     1691.0000000        1668.5708008        22.429199219    
 3316-48-300     1658.0000000        1661.7500000       -3.7500000000    
 3316-55-321     1663.0000000        1658.9378662        4.0621337891    
 3316-60-312     1666.0000000        1659.3830566        6.6169433594    
 3316-65-363     1677.0000000        1660.3208008        16.679199219    
 3316-71-351     1692.0000000        1667.2198486        24.780151367    
 3284-56-25      1689.0000000        1707.9555664       -18.955566406    
 3275-38-12      1709.0000000        1743.1254883       -34.125488281    
 3287-38-24      1676.0000000        1692.9655762       -16.965576172    
 3265-48-364     1671.0000000        1677.7889404       -6.7889404297    
 3265-56-25      1676.0000000        1683.6007080       -7.6007080078    
 3228-56-20      1682.0000000        1689.2192383       -7.2192382812    
 3228-61-73      1697.0000000        1688.6298828        8.3701171875    
 3228-66-19      1727.0000000        1692.0842285        34.915771484    
 3347-20-74      2968.0000000        2945.2514648        22.748535156    
 3347-26-157     2967.0000000        2957.4426270        9.5573730469    
 3347-37-33      2963.0000000        2957.4426270        5.5573730469    
 3347-43-82      2967.0000000        2962.4299316        4.5700683594    
 3347-48-336     2971.0000000        2965.8979492        5.1020507812    
 3347-56-23      2969.0000000        2966.0114746        2.9885253906    
 3347-61-62      2971.0000000        2963.1545410        7.8454589844    
 3347-65-299     2969.0000000        2965.2421875        3.7578125000    
 3347-71-12      2966.0000000        2962.1950684        3.8049316406    
 3347-71-365     2966.0000000        2960.8769531        5.1230468750    
 3378-15-337     2965.0000000        2959.7868652        5.2131347656    
 3378-26-127     2971.0000000        2978.0505371       -7.0505371094    
 3378-33-312     2954.0000000        2965.5483398       -11.548339844    
 3378-43-82      2971.0000000        2985.0903320       -14.090332031    
 3378-48-337     2976.0000000        2975.8513184       0.14868164062    
 3378-56-23      2976.0000000        2976.5544434      -0.55444335938    
 3378-61-62      2976.0000000        2983.3134766       -7.3134765625    
 3378-66-18      2972.0000000        2978.3447266       -6.3447265625    
 3336-71-63      2981.0000000        2963.4196777        17.580322266    
 3343-19-34      2966.0000000        2942.2414551        23.758544922    
 3343-26-121     2966.0000000        2950.7434082        15.256591797    
 3343-33-311     2952.0000000        2955.1806641       -3.1806640625    
 3343-43-82      2975.0000000        2958.3308105        16.669189453    
 3343-48-336     2978.0000000        2962.6708984        15.329101562    
 3343-56-25      2977.0000000        2962.0231934        14.976806641    
 3343-61-62      2975.0000000        2958.7812500        16.218750000    
 3343-66-24      2971.0000000        2959.3312988        11.668701172    
 3343-71-63      2963.0000000        2955.5783691        7.4216308594    
 3322-20-300     2968.0000000        2934.9946289        33.005371094    
 3322-26-127     2967.0000000        2942.3273926        24.672607422    
 3322-48-337     2973.0000000        2952.5795898        20.420410156    
 3322-56-25      2963.0000000        2951.0727539        11.927246094    
 3322-61-60      2964.0000000        2946.7849121        17.215087891    
 3317-43-85      2959.0000000        2947.6652832        11.334716797    
 3317-56-25      2964.0000000        2949.2685547        14.731445312    
 3317-61-60      2961.0000000        2944.9362793        16.063720703    
 3317-66-27      2959.0000000        2945.9914551        13.008544922    
 3317-71-64      2962.0000000        2944.1860352        17.813964844    
 3300-56-26      2995.0000000        2964.6237793        30.376220703    
 3289-56-26      3009.0000000        2943.3056641        65.694335938    
 3289-61-65      2998.0000000        2924.2106934        73.789306641    
 3276-56-26      3018.0000000        2937.1389160        80.861083984    
 3270-56-26      2964.0000000        2974.5249023       -10.524902344    
 3272-15-154     2955.0000000        2902.3618164        52.638183594    
 3272-26-125     2957.0000000        2915.8103027        41.189697266    
 3272-37-36      2947.0000000        2921.6464844        25.353515625    
 3272-43-27      2962.0000000        2925.3161621        36.683837891    
 3272-48-336     2970.0000000        2929.0041504        40.995849609    
 3272-56-26      2966.0000000        2925.3864746        40.613525391    
 3272-61-60      2962.0000000        2919.0739746        42.926025391    
 3272-71-12      2947.0000000        2920.3168945        26.683105469    
 3266-56-26      2956.0000000        2909.4887695        46.511230469    
 3260-33-313     3027.0000000        2991.7116699        35.288330078    
 3260-48-334     3050.0000000        3000.5410156        49.458984375    
 3260-56-26      3044.0000000        2996.4340820        47.565917969    
 3222-38-6       1714.0000000        1664.0949707        49.905029297    
 3213-12-324     1725.0000000        1746.3878174       -21.387817383    
 3213-16-335     1716.0000000        1734.3487549       -18.348754883    
 3213-21-335     1699.0000000        1709.1912842       -10.191284180    
 3213-32-7       1680.0000000        1675.4700928        4.5299072266    
 3213-38-10      1660.0000000        1658.6018066        1.3981933594    
 3213-56-19      1689.0000000        1669.9232178        19.076782227    
 3205-2-230      1730.0000000        1754.0445557       -24.044555664    
 3205-22-37      1683.0000000        1703.2745361       -20.274536133    
 3191-2-188      1745.0000000        1758.6677246       -13.667724609    
 3178-17-4       1713.0000000        1737.4162598       -24.416259766    
 3178-22-37      1688.0000000        1710.8276367       -22.827636719    
 3178-32-85      1649.0000000        1676.5092773       -27.509277344    
 3178-36-65      1610.0000000        1665.0705566       -55.070556641    
 3178-42-349     1623.0000000        1658.7364502       -35.736450195    
 3178-48-341     1643.0000000        1664.8238525       -21.823852539    
 3178-56-23      1655.0000000        1672.0296631       -17.029663086    
 3178-60-319     1671.0000000        1672.0893555       -1.0893554688    
 3177-17-4       1713.0000000        1740.0529785       -27.052978516    
 3176-11-297     1743.0000000        1756.6330566       -13.633056641    
 3176-16-342     1718.0000000        1741.0644531       -23.064453125    
 3176-21-342     1691.0000000        1715.8331299       -24.833129883    
 3176-32-7       1633.0000000        1679.7493896       -46.749389648    
 3176-34-339     1628.0000000        1670.4565430       -42.456542969    
 3174-21-335     1695.0000000        1719.6245117       -24.624511719    
 3174-56-19      1680.0000000        1683.2569580       -3.2569580078    
 3174-61-60      1690.0000000        1681.9454346        8.0545654297    
 3174-66-24      1723.0000000        1686.9595947        36.040405273    
 3188-2-335      1755.0000000        1776.4521484       -21.452148438    
 3188-6-341      1754.0000000        1775.7821045       -21.782104492    
 3188-10-350     1750.0000000        1763.8416748       -13.841674805    
 3199-38-6       1636.0000000        1669.8385010       -33.838500977    
 3199-48-337     1674.0000000        1679.4864502       -5.4864501953    
 3199-61-60      1705.0000000        1689.1741943        15.825805664    
 3175-48-337     1664.0000000        1678.7761230       -14.776123047    
 3175-56-19      1686.0000000        1689.1579590       -3.1579589844    
 3175-66-24      1729.0000000        1692.0048828        36.995117188    
 3196-56-19      1688.0000000        1691.6633301       -3.6633300781    
 3171-21-335     1716.0000000        1727.2781982       -11.278198242    
 3171-26-313     1672.0000000        1707.9498291       -35.949829102    
 3171-48-337     1698.0000000        1682.2391357        15.760864258    
 3173-48-337     1672.0000000        1681.8795166       -9.8795166016    
 3173-56-19      1692.0000000        1693.5694580       -1.5694580078    
 3173-61-60      1701.0000000        1691.7022705        9.2977294922    
 3173-66-20      1730.0000000        1695.5380859        34.461914062    
 3172-56-19      1682.0000000        1686.9991455       -4.9991455078    
 3172-61-60      1691.0000000        1685.5987549        5.4012451172    
 3172-66-24      1723.0000000        1690.3756104        32.624389648    
 3163-12-91      1748.0000000        1765.3126221       -17.312622070    
 3163-21-335     1701.0000000        1725.5366211       -24.536621094    
 3197-42-351     1684.0000000        1663.1315918        20.868408203    
 3197-48-348     1700.0000000        1669.3300781        30.669921875    
 3197-56-4       1699.0000000        1678.4073486        20.592651367    
 3197-61-5       1719.0000000        1677.3623047        41.637695312    
 3197-65-361     1745.0000000        1682.7364502        62.263549805    
 3197-71-355     1748.0000000        1699.0389404        48.961059570    
 3170-16-348     1732.0000000        1745.0897217       -13.089721680    
 3170-21-342     1703.0000000        1721.2624512       -18.262451172    
 3170-38-6       1681.0000000        1669.0970459        11.902954102    
 3170-42-351     1737.0000000        1668.9224854        68.077514648    
 3170-48-348     1694.0000000        1676.4082031        17.591796875    
 3170-55-354     1703.0000000        1686.0115967        16.988403320    
 3170-61-5       1725.0000000        1684.4576416        40.542358398    
 3170-65-361     1751.0000000        1689.6215820        61.378417969    
 3170-71-355     1754.0000000        1706.6311035        47.368896484    
 3139-21-343     1698.0000000        1723.8732910       -25.873291016    
 3139-71-355     1747.0000000        1709.6705322        37.329467773    
 3143-17-5       1732.0000000        1748.1901855       -16.190185547    
 3143-22-37      1708.0000000        1723.8138428       -15.813842773    
 3143-27-31      1695.0000000        1706.5506592       -11.550659180    
 3143-55-354     1694.0000000        1690.7857666        3.2142333984    
 3143-61-5       1720.0000000        1689.3638916        30.636108398    
 3143-65-361     1757.0000000        1695.1538086        61.846191406    
 3143-71-355     1760.0000000        1713.0528564        46.947143555    
 3166-1-1        1748.0000000        1768.7043457       -20.704345703    
 3166-11-335     1738.0000000        1758.4149170       -20.414916992    
 3166-21-335     1680.0000000        1717.9376221       -37.937622070    
 3100-16-338     1730.0000000        1756.7399902       -26.739990234    
 3100-21-335     1703.0000000        1732.5866699       -29.586669922    
 3100-43-60      1625.0000000        1669.1097412       -44.109741211    
 3100-55-354     1652.0000000        1685.1367188       -33.136718750    
 3100-61-5       1659.0000000        1685.9565430       -26.956542969    
 3100-66-20      1692.0000000        1690.6483154        1.3516845703    
 3100-71-355     1709.0000000        1705.6928711        3.3071289062    
 2939-42-351     1635.0000000        1671.0358887       -36.035888672    
 2939-61-5       1669.0000000        1686.9073486       -17.907348633    
 2939-70-352     1725.0000000        1704.9603271        20.039672852    
 2939-71-355     1727.0000000        1707.1817627        19.818237305    
 3099-21-335     1697.0000000        1732.1202393       -35.120239258    
 3099-61-5       1665.0000000        1686.1461182       -21.146118164    
 3099-66-20      1698.0000000        1690.9962158        7.0037841797    
 3099-71-355     1723.0000000        1706.4366455        16.563354492    
 3113-1-59       1773.0000000        1783.3103027       -10.310302734    
 3113-6-341      1768.0000000        1783.0440674       -15.044067383    
 3113-12-362     1752.0000000        1765.1103516       -13.110351562    
 3113-22-37      1703.0000000        1727.3304443       -24.330444336    
 3113-27-31      1697.0000000        1708.6907959       -11.690795898    
 3113-37-341     1653.0000000        1675.6914062       -22.691406250    
 3113-42-349     1684.0000000        1674.4691162        9.5308837891    
 3113-48-341     1664.0000000        1684.7974854       -20.797485352    
 3113-55-354     1694.0000000        1693.2871094       0.71289062500    
 3113-60-319     1716.0000000        1691.8991699        24.100830078    
 3113-65-298     1744.0000000        1698.4189453        45.581054688    
 3113-71-355     1757.0000000        1717.5559082        39.444091797    
 3097-12-170     1744.0000000        1772.8713379       -28.871337891    
 3097-17-5       1723.0000000        1755.9393311       -32.939331055    
 3097-42-351     1664.0000000        1676.5681152       -12.568115234    
 3097-48-348     1679.0000000        1687.4057617       -8.4057617188    
 3097-55-354     1696.0000000        1695.5920410       0.40795898438    
 3097-61-5       1718.0000000        1695.0346680        22.965332031    
 3097-65-361     1750.0000000        1702.2017822        47.798217773    
 3097-71-355     1760.0000000        1721.8398438        38.160156250    
 3095-42-351     1666.0000000        1676.2667236       -10.266723633    
 3095-48-348     1682.0000000        1686.9772949       -4.9772949219    
 3095-55-354     1698.0000000        1695.1798096        2.8201904297    
 3095-61-5       1720.0000000        1694.5758057        25.424194336    
 3095-65-361     1752.0000000        1701.6029053        50.397094727    
 3095-71-355     1761.0000000        1721.0717773        39.928222656    
 3096-8-283      1773.0000000        1786.2713623       -13.271362305    
 3096-17-5       1736.0000000        1758.5114746       -22.511474609    
 3096-21-335     1708.0000000        1732.7266846       -24.726684570    
 3135-8-282      1775.0000000        1785.8031006       -10.803100586    
 3135-11-355     1766.0000000        1775.7686768       -9.7686767578    
 3135-16-349     1739.0000000        1756.9720459       -17.972045898    
 3135-21-312     1708.0000000        1732.1623535       -24.162353516    
 3135-26-292     1680.0000000        1713.4547119       -33.454711914    
 3135-38-5       1641.0000000        1678.2810059       -37.281005859    
 3135-48-337     1678.0000000        1691.0550537       -13.055053711    
 3135-56-19      1700.0000000        1701.7098389       -1.7098388672    
 3135-61-60      1717.0000000        1700.1857910        16.814208984    
 3121-55-354     1713.0000000        1700.5811768        12.418823242    
 3121-61-5       1724.0000000        1698.4750977        25.524902344    
 3121-66-20      1760.0000000        1705.8752441        54.124755859    
 3121-71-365     1772.0000000        1728.1644287        43.835571289    
 3059-10-57      1779.0000000        1796.5509033       -17.550903320    
 3059-17-5       1744.0000000        1770.4252930       -26.425292969    
 3059-27-31      1693.0000000        1724.3697510       -31.369750977    
 3059-37-33      1717.0000000        1691.4071045        25.592895508    
 3059-42-349     1681.0000000        1689.8231201       -8.8231201172    
 3059-48-342     1700.0000000        1702.8096924       -2.8096923828    
 3059-56-20      1720.0000000        1711.6976318        8.3023681641    
 3059-60-319     1742.0000000        1710.9349365        31.065063477    
 3059-65-301     1777.0000000        1723.8632812        53.136718750    
 3059-71-365     1787.0000000        1751.4538574        35.546142578    
 3078-21-335     1709.0000000        1737.0704346       -28.070434570    
 3080-11-297     1762.0000000        1780.8125000       -18.812500000    
 3075-56-20      1716.0000000        1702.9857178        13.014282227    
 3089-2-339      1774.0000000        1786.9069824       -12.906982422    
 3089-6-341      1772.0000000        1786.4431152       -14.443115234    
 3089-12-362     1763.0000000        1771.6151123       -8.6151123047    
 3089-16-313     1745.0000000        1757.1470947       -12.147094727    
 3089-42-351     1693.0000000        1675.4812012        17.518798828    
 3089-65-361     1743.0000000        1699.2713623        43.728637695    
 3089-71-355     1755.0000000        1717.6329346        37.367065430    
 3053-11-297     1767.0000000        1786.4387207       -19.438720703    
 3053-16-349     1741.0000000        1765.0606689       -24.060668945    
 3053-22-37      1710.0000000        1739.6025391       -29.602539062    
 3053-32-85      1668.0000000        1694.9780273       -26.978027344    
 3053-42-351     1660.0000000        1678.7491455       -18.749145508    
 3053-48-348     1676.0000000        1689.4682617       -13.468261719    
 3053-55-353     1689.0000000        1697.7805176       -8.7805175781    
 3053-61-5       1706.0000000        1698.6538086        7.3461914062    
 3053-65-361     1735.0000000        1704.8759766        30.124023438    
 3053-71-355     1752.0000000        1723.6378174        28.362182617    
 3050-55-353     1689.0000000        1697.8950195       -8.8950195312    
 3050-61-5       1706.0000000        1698.7821045        7.2178955078    
 3050-65-361     1735.0000000        1705.0174561        29.982543945    
 3050-71-355     1752.0000000        1723.7709961        28.229003906    
 3076-37-33      1618.0000000        1681.1956787       -63.195678711    
 3076-42-349     1656.0000000        1678.4000244       -22.400024414    
 3076-48-342     1676.0000000        1688.2308350       -12.230834961    
 3076-56-23      1695.0000000        1697.2069092       -2.2069091797    
 3076-61-60      1701.0000000        1697.8693848        3.1306152344    
 3076-66-24      1742.0000000        1704.9177246        37.082275391    
 3077-55-354     1659.0000000        1688.5610352       -29.561035156    
 3077-61-5       1665.0000000        1688.8457031       -23.845703125    
 3077-66-20      1690.0000000        1693.8302002       -3.8302001953    
 3077-71-355     1718.0000000        1708.9687500        9.0312500000    
 3065-48-348     1663.0000000        1680.4680176       -17.468017578    
 3021-1-107      1784.0000000        1799.5263672       -15.526367188    
 3021-7-3        1782.0000000        1798.2843018       -16.284301758    
 3020-7-3        1781.0000000        1798.3588867       -17.358886719    
 3020-12-59      1775.0000000        1791.8178711       -16.817871094    
 3020-16-314     1755.0000000        1772.4222412       -17.422241211    
 3020-22-37      1731.0000000        1746.1169434       -15.116943359    
 3020-27-31      1697.0000000        1722.7088623       -25.708862305    
 2989-12-59      1780.0000000        1797.5206299       -17.520629883    
 2995-16-313     1748.0000000        1777.3975830       -29.397583008    
 2995-22-37      1734.0000000        1748.8824463       -14.882446289    
 2995-27-31      1719.0000000        1727.9472656       -8.9472656250    
 2995-32-85      1723.0000000        1705.6888428        17.311157227    
 3201-48-300     1676.0000000        1705.6601562       -29.660156250    
 3201-55-321     1685.0000000        1712.9954834       -27.995483398    
 3201-60-312     1692.0000000        1713.3853760       -21.385375977    
 3201-65-363     1706.0000000        1722.2976074       -16.297607422    
 3201-71-10      1726.0000000        1742.6406250       -16.640625000    
 3202-48-300     1678.0000000        1700.9631348       -22.963134766    
 3202-55-321     1687.0000000        1708.6806641       -21.680664062    
 3202-60-312     1696.0000000        1709.7073975       -13.707397461    
 3202-65-363     1720.0000000        1716.2761230        3.7238769531    
 3202-71-10      1745.0000000        1735.9263916        9.0736083984    
 3200-21-335     1763.0000000        1784.6932373       -21.693237305    
 3200-32-6       1728.0000000        1753.2784424       -25.278442383    
 3200-36-351     1712.0000000        1740.0126953       -28.012695312    
 3200-49-54      1695.0000000        1731.3353271       -36.335327148    
 3200-56-24      1699.0000000        1735.3482666       -36.348266602    
 3200-60-319     1706.0000000        1737.0642090       -31.064208984    
 3200-65-298     1718.0000000        1746.2332764       -28.233276367    
 3200-71-365     1736.0000000        1771.5422363       -35.542236328    
 3154-1-337      1791.0000000        1800.2955322       -9.2955322266    
 3154-6-286      1782.0000000        1797.1475830       -15.147583008    
 3154-11-298     1778.0000000        1787.9763184       -9.9763183594    
 3154-16-358     1742.0000000        1764.9960938       -22.996093750    
 3154-21-343     1712.0000000        1742.2987061       -30.298706055    
 3154-32-85      1660.0000000        1706.5439453       -46.543945312    
 3154-37-33      1649.0000000        1696.3662109       -47.366210938    
 3154-42-349     1651.0000000        1695.9462891       -44.946289062    
 3150-48-337     1681.0000000        1704.9099121       -23.909912109    
 3150-56-23      1704.0000000        1717.9146729       -13.914672852    
 3150-60-319     1720.0000000        1716.3116455        3.6883544922    
 3150-65-298     1752.0000000        1727.5643311        24.435668945    
 3150-71-11      1775.0000000        1755.6879883        19.312011719    
 3150-71-365     1776.0000000        1758.5447998        17.455200195    
 3158-12-85      1766.0000000        1786.0059814       -20.005981445    
 3158-16-342     1740.0000000        1766.4737549       -26.473754883    
 3158-21-346     1712.0000000        1744.4195557       -32.419555664    
 3158-56-25      1700.0000000        1717.5983887       -17.598388672    
 3158-61-55      1720.0000000        1716.5410156        3.4589843750    
 3158-66-19      1753.0000000        1727.9785156        25.021484375    
 3179-8-1        1777.0000000        1784.5739746       -7.5739746094    
 3151-12-33      1773.0000000        1782.0078125       -9.0078125000    
 3151-16-342     1740.0000000        1760.9222412       -20.922241211    
 3151-21-346     1717.0000000        1735.9666748       -18.966674805    
 3151-56-23      1705.0000000        1713.7239990       -8.7239990234    
 3151-61-55      1725.0000000        1711.6455078        13.354492188    
 3151-66-18      1758.0000000        1721.9157715        36.084228516    
 3167-34-152     1703.0000000        1690.0281982        12.971801758    
 3103-38-3       1652.0000000        1689.5014648       -37.501464844    
 3101-66-24      1760.0000000        1728.1705322        31.829467773    
 3105-8-1        1789.0000000        1802.3261719       -13.326171875    
 3105-56-23      1710.0000000        1721.1376953       -11.137695312    
 3105-61-55      1731.0000000        1720.2133789        10.786621094    
 3105-66-18      1767.0000000        1737.7872314        29.212768555    
 3142-12-1       1778.0000000        1793.6362305       -15.636230469    
 3142-16-342     1744.0000000        1771.8662109       -27.866210938    
 3142-56-24      1707.0000000        1723.3161621       -16.316162109    
 3142-61-55      1726.0000000        1722.8111572        3.1888427734    
 3142-66-19      1759.0000000        1737.9315186        21.068481445    
 3138-21-346     1718.0000000        1750.6240234       -32.624023438    
 3138-56-24      1708.0000000        1723.4395752       -15.439575195    
 3138-61-55      1727.0000000        1722.9370117        4.0629882812    
 3138-66-19      1760.0000000        1738.2038574        21.796142578    
 3119-48-337     1687.0000000        1710.3350830       -23.335083008    
 3119-56-23      1712.0000000        1723.0207520       -11.020751953    
 3119-61-60      1732.0000000        1722.1782227        9.8217773438    
 3119-66-18      1768.0000000        1739.1943359        28.805664062    
 3130-2-305      1828.0000000        1808.3312988        19.668701172    
 3108-8-32       1790.0000000        1810.4785156       -20.478515625    
 3104-56-26      1723.0000000        1737.7440186       -14.744018555    
 3104-61-55      1744.0000000        1738.6175537        5.3824462891    
 3104-66-19      1777.0000000        1763.4904785        13.509521484    
 3102-56-26      1724.0000000        1739.1500244       -15.150024414    
 3102-61-55      1744.0000000        1740.1655273        3.8344726562    
 3102-66-19      1776.0000000        1765.3428955        10.657104492    
 3140-48-300     1690.0000000        1730.3289795       -40.328979492    
 3141-48-300     1693.0000000        1730.3289795       -37.328979492    
 3061-66-19      1799.0000000        1800.9832764       -1.9832763672    
 3085-1-337      1814.0000000        1830.4124756       -16.412475586    
 3085-6-286      1805.0000000        1827.3132324       -22.313232422    
 3085-11-361     1794.0000000        1819.7081299       -25.708129883    
 3085-16-350     1764.0000000        1800.1337891       -36.133789062    
 3085-21-346     1739.0000000        1784.0738525       -45.073852539    
 3064-56-25      1746.0000000        1768.6184082       -22.618408203    
 3083-56-23      1725.0000000        1742.1015625       -17.101562500    
 3083-61-55      1747.0000000        1743.6091309        3.3908691406    
 3083-66-18      1785.0000000        1772.9199219        12.080078125    
 3084-10-60      1787.0000000        1807.0493164       -20.049316406    
 3084-48-341     1690.0000000        1718.3281250       -28.328125000    
 3084-56-23      1716.0000000        1729.9544678       -13.954467773    
 3084-61-55      1737.0000000        1730.1253662        6.8746337891    
 3084-66-18      1775.0000000        1757.0895996        17.910400391    
 3081-48-341     1690.0000000        1716.8575439       -26.857543945    
 3081-56-23      1714.0000000        1728.5793457       -14.579345703    
 3081-61-55      1736.0000000        1728.6800537        7.3199462891    
 3081-66-18      1774.0000000        1754.6058350        19.394165039    
 3079-1-365      1791.0000000        1813.4992676       -22.499267578    
 3058-48-337     1697.0000000        1727.0251465       -30.025146484    
 3058-56-23      1722.0000000        1737.9306641       -15.930664062    
 3058-61-55      1745.0000000        1740.3265381        4.6734619141    
 3058-66-18      1782.0000000        1778.0461426        3.9538574219    
 3086-12-247     1778.0000000        1790.1134033       -12.113403320    
 3107-1-365      1784.0000000        1799.4895020       -15.489501953    
 3107-11-334     1774.0000000        1785.7128906       -11.712890625    
 3040-10-32      1777.0000000        1804.9338379       -27.933837891    
 3017-71-5       1785.0000000        1754.6617432        30.338256836    
 3017-71-365     1787.0000000        1758.1151123        28.884887695    
 3015-55-354     1715.0000000        1713.8345947        1.1654052734    
 3015-71-5       1790.0000000        1754.7430420        35.256958008    
 3015-71-365     1792.0000000        1758.1641846        33.835815430    
 3054-10-32      1780.0000000        1808.0654297       -28.065429688    
 3046-12-247     1759.0000000        1796.4637451       -37.463745117    
 3046-16-350     1748.0000000        1780.3750000       -32.375000000    
 3046-21-343     1714.0000000        1754.5032959       -40.503295898    
 3046-32-8       1684.0000000        1717.5146484       -33.514648438    
 3046-36-87      1671.0000000        1710.5333252       -39.533325195    
 3036-11-18      1788.0000000        1806.9282227       -18.928222656    
 3036-16-350     1755.0000000        1782.6854248       -27.685424805    
 3036-21-335     1722.0000000        1756.5333252       -34.533325195    
 3030-12-247     1770.0000000        1807.7535400       -37.753540039    
 3030-16-350     1757.0000000        1791.7897949       -34.789794922    
 3030-21-346     1725.0000000        1767.2536621       -42.253662109    
 3038-1-337      1816.0000000        1836.3714600       -20.371459961    
 3038-6-286      1808.0000000        1834.9970703       -26.997070312    
 3038-11-338     1796.0000000        1824.6197510       -28.619750977    
 3038-16-350     1765.0000000        1804.5302734       -39.530273438    
 3038-21-312     1732.0000000        1783.7303467       -51.730346680    
 3038-42-349     1678.0000000        1738.7940674       -60.794067383    
 3035-48-337     1709.0000000        1745.6751709       -36.675170898    
 3035-56-23      1737.0000000        1754.7589111       -17.758911133    
 3035-60-319     1755.0000000        1757.3629150       -2.3629150391    
 3035-66-18      1790.0000000        1795.1672363       -5.1672363281    
 3035-71-11      1802.0000000        1822.9511719       -20.951171875    
 3035-71-365     1804.0000000        1825.4377441       -21.437744141    
 3007-12-76      1799.0000000        1827.4742432       -28.474243164    
 3007-48-337     1714.0000000        1750.3940430       -36.394042969    
 3007-56-23      1743.0000000        1759.7325439       -16.732543945    
 3007-61-55      1764.0000000        1760.2680664        3.7319335938    
 3007-66-18      1797.0000000        1793.9005127        3.0994873047    
 3032-10-32      1837.0000000        1845.0778809       -8.0778808594    
 3032-48-337     1721.0000000        1762.9953613       -41.995361328    
 3032-56-23      1749.0000000        1769.6301270       -20.630126953    
 3032-61-55      1769.0000000        1771.1334229       -2.1334228516    
 3032-66-27      1792.0000000        1802.9630127       -10.963012695    
 3006-56-23      1745.0000000        1768.3316650       -23.331665039    
 3006-61-55      1767.0000000        1772.8725586       -5.8725585938    
 3006-66-18      1801.0000000        1816.5124512       -15.512451172    
 3005-10-60      1836.0000000        1850.6939697       -14.693969727    
 3005-48-337     1770.0000000        1771.2517090       -1.2517089844    
 3005-56-23      1795.0000000        1777.5045166        17.495483398    
 3005-61-55      1805.0000000        1779.7600098        25.239990234    
 3005-66-18      1812.0000000        1814.9036865       -2.9036865234    
 3002-56-23      1794.0000000        1786.7598877        7.2401123047    
 3002-61-55      1805.0000000        1787.5936279        17.406372070    
 3002-66-19      1810.0000000        1816.9068604       -6.9068603516    
 3182-48-337     1674.0000000        1688.1669922       -14.166992188    
 3182-56-19      1692.0000000        1700.2463379       -8.2463378906    
 3182-61-60      1708.0000000        1698.0070801        9.9929199219    
 3182-66-27      1739.0000000        1703.3115234        35.688476562    
 3155-8-1        1775.0000000        1790.0817871       -15.081787109    
 3155-48-337     1676.0000000        1695.8647461       -19.864746094    
 3155-56-19      1717.0000000        1707.7100830        9.2899169922    
 3155-66-24      1748.0000000        1713.5275879        34.472412109    
 2695-43-60      1677.0000000        1692.1689453       -15.168945312    
 2695-55-354     1712.0000000        1713.7877197       -1.7877197266    
 2695-61-7       1726.0000000        1714.9289551        11.071044922    
 2695-65-361     1770.0000000        1730.5572510        39.442749023    
 2695-71-5       1782.0000000        1754.4965820        27.503417969    
 2695-71-365     1784.0000000        1757.9205322        26.079467773    
 3037-48-364     1774.0000000        1796.9141846       -22.914184570    
 3009-56-25      1908.0000000        1842.3731689        65.626831055    
 3009-61-55      1906.0000000        1837.9020996        68.097900391    
 3001-56-25      1910.0000000        1845.5579834        64.442016602    
 3001-61-55      1908.0000000        1840.8271484        67.172851562    
 3004-17-1       2018.0000000        2015.8176270        2.1823730469    
 3004-22-1       2015.0000000        2013.7752686        1.2247314453    
 3004-27-32      2001.0000000        2008.8730469       -7.8730468750    
 3004-37-36      2005.0000000        1997.7893066        7.2106933594    
 3004-66-24      2001.0000000        1955.6062012        45.393798828    
 3004-71-57      1994.0000000        1953.2535400        40.746459961    
 3010-48-334     2113.0000000        2104.6328125        8.3671875000    
 3010-56-27      2109.0000000        2096.6076660        12.392333984    
 3039-42-364     2228.0000000        2293.8344727       -65.834472656    
 3039-48-335     2245.0000000        2291.4975586       -46.497558594    
 3039-56-25      2227.0000000        2287.1953125       -60.195312500    
 3019-31-297     2244.0000000        2238.4262695        5.5737304688    
 2997-36-32      2229.0000000        2249.9890137       -20.989013672    
 2997-43-41      2230.0000000        2245.9033203       -15.903320312    
 2997-48-334     2229.0000000        2242.3503418       -13.350341797    
 3012-31-339     2316.0000000        2284.8146973        31.185302734    
 3016-8-222      2284.0000000        2328.7470703       -44.747070312    
 3016-11-53      2300.0000000        2328.4235840       -28.423583984    
 3014-42-365     2297.0000000        2326.9204102       -29.920410156    
 3014-48-334     2299.0000000        2325.7019043       -26.701904297    
 3014-56-24      2299.0000000        2319.5820312       -20.582031250    
 3014-61-59      2298.0000000        2308.2590332       -10.259033203    
 3014-66-25      2291.0000000        2294.8312988       -3.8312988281    
 3014-71-54      2278.0000000        2281.2827148       -3.2827148438    
 3013-43-6       2316.0000000        2338.7453613       -22.745361328    
 3013-48-335     2319.0000000        2337.2641602       -18.264160156    
 3013-56-26      2319.0000000        2328.5305176       -9.5305175781    
 3013-66-28      2310.0000000        2304.4851074        5.5148925781    
 3041-66-33      2468.0000000        2466.5913086        1.4086914062    
 3041-71-61      2459.0000000        2456.1437988        2.8562011719    
 3055-11-56      2467.0000000        2496.9226074       -29.922607422    
 3055-43-6       2457.0000000        2511.4868164       -54.486816406    
 3055-48-335     2469.0000000        2516.0793457       -47.079345703    
 3055-56-19      2469.0000000        2507.3913574       -38.391357422    
 3251-48-334     3019.0000000        2965.5727539        53.427246094    
 3246-56-26      2986.0000000        2958.5429688        27.457031250    
 3248-16-116     2955.0000000        2920.6809082        34.319091797    
 3248-21-116     2975.0000000        2942.4265137        32.573486328    
 3248-26-125     2959.0000000        2962.2470703       -3.2470703125    
 3248-31-111     2961.0000000        2964.1052246       -3.1052246094    
 3248-37-36      2957.0000000        2949.1250000        7.8750000000    
 3248-43-81      2972.0000000        2965.8188477        6.1811523438    
 3248-48-334     2988.0000000        2965.3005371        22.699462891    
 3248-56-26      2987.0000000        2959.1645508        27.835449219    
 3248-71-61      2965.0000000        2941.6755371        23.324462891    
 3242-56-26      2985.0000000        2946.8393555        38.160644531    
 3241-61-61      2998.0000000        2945.5991211        52.400878906    
 3241-66-18      2981.0000000        2957.4599609        23.540039062    
 3241-71-61      3005.0000000        2942.6726074        62.327392578    
 3235-71-64      3012.0000000        2930.9470215        81.052978516    
 3221-66-33      2925.0000000        2896.1296387        28.870361328    
 3262-42-335     2939.0000000        2901.2326660        37.767333984    
 3262-49-8       2944.0000000        2907.5900879        36.409912109    
 3262-55-342     2943.0000000        2906.0671387        36.932861328    
 3262-61-35      2939.0000000        2902.5349121        36.465087891    
 3262-66-33      2931.0000000        2901.6054688        29.394531250    
 3262-71-323     2925.0000000        2897.2390137        27.760986328    
 3256-27-125     2931.0000000        2882.9160156        48.083984375    
 3256-37-36      2916.0000000        2887.6113281        28.388671875    
 3256-48-356     2938.0000000        2894.8972168        43.102783203    
 3256-55-342     2934.0000000        2893.3059082        40.694091797    
 3256-66-33      2926.0000000        2889.0339355        36.966064453    
 3256-71-323     2917.0000000        2883.7275391        33.272460938    
 3252-43-81      2932.0000000        2890.0717773        41.928222656    
 3252-48-336     2934.0000000        2890.3137207        43.686279297    
 3252-56-27      2930.0000000        2890.4855957        39.514404297    
 3252-60-323     2929.0000000        2884.4060059        44.593994141    
 3252-65-299     2923.0000000        2888.1740723        34.825927734    
 3252-71-365     2915.0000000        2881.5961914        33.403808594    
 3253-55-342     2930.0000000        2893.5190430        36.480957031    
 3253-60-335     2927.0000000        2887.0612793        39.938720703    
 3253-66-34      2925.0000000        2888.3884277        36.611572266    
 3253-71-323     2917.0000000        2883.2609863        33.739013672    
 3263-16-299     2905.0000000        2843.7421875        61.257812500    
 3263-26-127     2904.0000000        2860.2482910        43.751708984    
 3263-43-60      2902.0000000        2870.9821777        31.017822266    
 3263-48-356     2911.0000000        2874.8381348        36.161865234    
 3263-56-24      2900.0000000        2872.8681641        27.131835938    
 3263-66-33      2901.0000000        2869.4072266        31.592773438    
 3263-71-365     2895.0000000        2865.2480469        29.751953125    
 3224-56-27      2930.0000000        2887.6997070        42.300292969    
 3209-33-314     2882.0000000        2861.4787598        20.521240234    
 3210-43-81      2884.0000000        2862.1281738        21.871826172    
 3210-48-336     2887.0000000        2865.1638184        21.836181641    
 3210-56-26      2894.0000000        2862.1896973        31.810302734    
 3195-33-32      2815.0000000        2842.7866211       -27.786621094    
 3180-34-152     2820.0000000        2839.3176270       -19.317626953    
 3184-66-28      2857.0000000        2841.4228516        15.577148438    
 3184-71-62      2852.0000000        2838.9306641        13.069335938    
 3186-66-28      2856.0000000        2842.0871582        13.912841797    
 3186-71-60      2852.0000000        2839.6733398        12.326660156    
 3183-66-31      2872.0000000        2851.1823730        20.817626953    
 3207-43-7       2948.0000000        2918.5390625        29.460937500    
 3207-48-334     2964.0000000        2915.5832520        48.416748047    
 3207-56-26      2976.0000000        2911.3144531        64.685546875    
 3190-43-7       2890.0000000        2856.8168945        33.183105469    
 3190-48-336     2901.0000000        2863.7490234        37.250976562    
 3190-56-25      2904.0000000        2858.6865234        45.313476562    
 3194-71-62      2908.0000000        2881.3933105        26.606689453    
 3192-66-34      2931.0000000        2889.2158203        41.784179688    
 3192-71-60      2929.0000000        2879.6608887        49.339111328    
 3187-43-7       2909.0000000        2882.4672852        26.532714844    
 3187-48-334     2917.0000000        2876.2285156        40.771484375    
 3203-71-62      2945.0000000        2900.0354004        44.964599609    
 3165-71-62      2841.0000000        2835.4147949        5.5852050781    
 3148-43-7       2842.0000000        2818.1235352        23.876464844    
 3157-71-62      2841.0000000        2825.3669434        15.633056641    
 3152-71-62      2846.0000000        2818.4770508        27.522949219    
 3169-43-8       2834.0000000        2827.7253418        6.2746582031    
 3169-48-336     2821.0000000        2829.7705078       -8.7705078125    
 3169-66-34      2822.0000000        2822.8232422      -0.82324218750    
 3169-71-61      2805.0000000        2816.7041016       -11.704101562    
 3168-43-7       2830.0000000        2825.1555176        4.8444824219    
 3168-56-26      2830.0000000        2825.6662598        4.3337402344    
 3168-66-34      2829.0000000        2822.2460938        6.7539062500    
 3156-27-289     2792.0000000        2801.5898438       -9.5898437500    
 3144-43-7       2755.0000000        2794.2951660       -39.295166016    
 3144-56-25      2765.0000000        2793.9345703       -28.934570312    
 3144-66-34      2744.0000000        2790.2194824       -46.219482422    
 3144-71-60      2734.0000000        2785.0312500       -51.031250000    
 3110-43-5       2722.0000000        2758.9206543       -36.920654297    
 3110-48-335     2730.0000000        2760.2004395       -30.200439453    
 3136-43-7       2851.0000000        2826.7324219        24.267578125    
 3136-48-334     2861.0000000        2824.1223145        36.877685547    
 3136-56-26      2868.0000000        2821.6762695        46.323730469    
 3136-66-35      2846.0000000        2819.3244629        26.675537109    
 3136-71-61      2827.0000000        2811.9475098        15.052490234    
 3093-5-82       2709.0000000        2709.4753418      -0.47534179688    
 3093-6-97       2709.0000000        2709.1743164      -0.17431640625    
 3093-16-133     2692.0000000        2711.9929199       -19.992919922    
 3093-26-124     2688.0000000        2737.6186523       -49.618652344    
 3093-37-37      2684.0000000        2733.9858398       -49.985839844    
 3093-43-7       2727.0000000        2747.5270996       -20.527099609    
 3094-48-337     2811.0000000        2785.6914062        25.308593750    
 3094-66-33      2785.0000000        2777.8171387        7.1828613281    
 3094-71-61      2774.0000000        2774.4655762      -0.46557617188    
 3057-48-337     2564.0000000        2579.8994141       -15.899414062    
 3057-56-25      2558.0000000        2569.9802246       -11.980224609    
 3011-48-337     2533.0000000        2511.7668457        21.233154297    
 3011-66-33      2460.0000000        2454.6191406        5.3808593750    
 3011-71-61      2447.0000000        2443.4406738        3.5593261719    
 3026-48-337     2520.0000000        2551.7333984       -31.733398438    
 3026-56-25      2554.0000000        2539.9995117        14.000488281    
 2999-16-361     2530.0000000        2534.8640137       -4.8640136719    
 2999-22-31      2533.0000000        2545.5273438       -12.527343750    
 2999-27-11      2522.0000000        2555.6694336       -33.669433594    
 2999-31-351     2526.0000000        2555.9301758       -29.930175781    
 2999-37-343     2520.0000000        2550.5156250       -30.515625000    
 2999-56-25      2568.0000000        2543.6887207        24.311279297    
 2999-66-33      2500.0000000        2516.1975098       -16.197509766    
 2999-71-61      2475.0000000        2500.3459473       -25.345947266    
 2994-43-5       2561.0000000        2567.9333496       -6.9333496094    
 2994-56-25      2576.0000000        2554.3024902        21.697509766    
 3029-48-336     2649.0000000        2644.7756348        4.2243652344    
 3029-56-26      2651.0000000        2638.8991699        12.100830078    
 3029-66-33      2616.0000000        2624.6552734       -8.6552734375    
 3008-48-336     2686.0000000        2679.4155273        6.5844726562    
 3008-56-26      2693.0000000        2673.6386719        19.361328125    
 2963-1-107      1799.0000000        1813.9221191       -14.922119141    
 2948-17-4       1766.0000000        1781.7145996       -15.714599609    
 2982-48-348     1665.0000000        1696.9746094       -31.974609375    
 2982-55-354     1675.0000000        1705.1563721       -30.156372070    
 2982-61-7       1679.0000000        1706.9271240       -27.927124023    
 2982-66-55      1695.0000000        1713.0185547       -18.018554688    
 2982-71-355     1716.0000000        1729.7603760       -13.760375977    
 2968-71-365     1752.0000000        1732.3323975        19.667602539    
 2951-42-351     1676.0000000        1684.8107910       -8.8107910156    
 2951-48-348     1682.0000000        1700.8464355       -18.846435547    
 2951-55-354     1690.0000000        1708.3543701       -18.354370117    
 2951-61-5       1696.0000000        1710.1732178       -14.173217773    
 2951-66-20      1714.0000000        1715.9248047       -1.9248046875    
 2951-71-355     1736.0000000        1732.4000244        3.5999755859    
 2950-12-335     1795.0000000        1806.2584229       -11.258422852    
 2950-55-354     1695.0000000        1709.1817627       -14.181762695    
 2945-1-107      1802.0000000        1816.2883301       -14.288330078    
 2945-7-3        1799.0000000        1814.7518311       -15.751831055    
 2945-10-320     1798.0000000        1811.7027588       -13.702758789    
 2902-42-351     1680.0000000        1692.4964600       -12.496459961    
 2902-48-348     1690.0000000        1709.9387207       -19.938720703    
 2902-55-354     1697.0000000        1716.0506592       -19.050659180    
 2902-61-5       1703.0000000        1718.0937500       -15.093750000    
 2902-66-20      1715.0000000        1722.9338379       -7.9338378906    
 2902-71-355     1732.0000000        1738.3776855       -6.3776855469    
 2906-12-332     1816.0000000        1817.4572754       -1.4572753906    
 2906-17-4       1787.0000000        1793.7305908       -6.7305908203    
 2906-22-34      1763.0000000        1765.6719971       -2.6719970703    
 2906-32-85      1709.0000000        1709.0979004      -9.79003906250E-02
 2906-37-33      1693.0000000        1685.7910156        7.2089843750    
 2906-48-365     1698.0000000        1709.1008301       -11.100830078    
 2906-55-354     1704.0000000        1715.9167480       -11.916748047    
 2906-61-5       1712.0000000        1718.2781982       -6.2781982422    
 2906-66-20      1724.0000000        1723.7292480       0.27075195312    
 2906-71-365     1744.0000000        1740.1390381        3.8609619141    
 2922-16-313     1748.0000000        1786.6652832       -38.665283203    
 2922-22-34      1736.0000000        1758.0959473       -22.095947266    
 2922-27-13      1727.0000000        1731.9758301       -4.9758300781    
 2559-17-6       1766.0000000        1789.1932373       -23.193237305    
 2559-42-351     1729.0000000        1692.0924072        36.907592773    
 2559-48-348     1727.0000000        1706.5115967        20.488403320    
 2559-56-3       1747.0000000        1712.8106689        34.189331055    
 2559-66-20      1779.0000000        1731.4802246        47.519775391    
 2559-71-365     1791.0000000        1753.9061279        37.093872070    
 2920-1-109      1851.0000000        1820.5543213        30.445678711    
 2901-42-351     1703.0000000        1691.2237549        11.776245117    
 2901-55-355     1725.0000000        1713.6447754        11.355224609    
 2901-61-5       1741.0000000        1719.3861084        21.613891602    
 2901-66-20      1777.0000000        1732.9090576        44.090942383    
 2901-71-365     1790.0000000        1757.6480713        32.351928711    
 2905-17-6       1766.0000000        1790.6683350       -24.668334961    
 2905-22-34      1752.0000000        1761.9166260       -9.9166259766    
 2905-42-351     1705.0000000        1691.2657471        13.734252930    
 2905-71-50      1791.0000000        1754.2810059        36.718994141    
 2905-71-365     1792.0000000        1757.5579834        34.442016602    
 2907-42-351     1686.0000000        1695.3872070       -9.3872070312    
 2907-48-348     1710.0000000        1709.5372314       0.46276855469    
 2907-55-355     1725.0000000        1716.5889893        8.4110107422    
 2907-61-5       1744.0000000        1722.3599854        21.640014648    
 2907-66-20      1779.0000000        1734.1790771        44.820922852    
 2907-71-365     1793.0000000        1757.4405518        35.559448242    
 2900-17-6       1758.0000000        1790.9221191       -32.922119141    
 2900-56-20      1729.0000000        1712.8985596        16.101440430    
 2900-66-26      1782.0000000        1736.0970459        45.902954102    
 2874-3-290      1828.0000000        1829.2965088       -1.2965087891    
 2838-3-1        1817.0000000        1836.4178467       -19.417846680    
 2809-16-354     1803.0000000        1809.8123779       -6.8123779297    
 2788-1-105      1834.0000000        1847.5603027       -13.560302734    
 2788-7-3        1834.0000000        1845.3571777       -11.357177734    
 2788-11-311     1833.0000000        1840.1354980       -7.1354980469    
 2780-12-173     1827.0000000        1838.2314453       -11.231445312    
 2780-16-354     1802.0000000        1812.8078613       -10.807861328    
 2780-37-33      1689.0000000        1696.8275146       -7.8275146484    
 2779-16-354     1809.0000000        1814.0900879       -5.0900878906    
 2779-22-34      1782.0000000        1782.3090820      -0.30908203125    
 2777-16-354     1824.0000000        1815.3364258        8.6635742188    
 2787-16-335     1815.0000000        1815.7773438      -0.77734375000    
 2787-22-34      1802.0000000        1782.8076172        19.192382812    
 2787-34-351     1762.0000000        1710.7117920        51.288208008    
 2787-56-25      1747.0000000        1726.0993652        20.900634766    
 2787-61-52      1751.0000000        1736.4697266        14.530273438    
 2787-66-25      1760.0000000        1740.4943848        19.505615234    
 2783-17-6       1822.0000000        1813.9196777        8.0803222656    
 2783-56-25      1749.0000000        1731.0926514        17.907348633    
 2783-66-20      1780.0000000        1743.3266602        36.673339844    
 2783-71-365     1781.0000000        1764.1632080        16.836791992    
 2790-66-20      1764.0000000        1746.2344971        17.765502930    
 2790-71-365     1774.0000000        1764.7000732        9.2999267578    
 2745-16-354     1825.0000000        1821.3017578        3.6982421875    
 2745-66-20      1767.0000000        1744.9775391        22.022460938    
 2745-71-365     1771.0000000        1763.4871826        7.5128173828    
 2775-1-86       1838.0000000        1850.5191650       -12.519165039    
 2775-7-68       1836.0000000        1847.9859619       -11.985961914    
 2731-48-348     1740.0000000        1727.0245361        12.975463867    
 2731-55-354     1732.0000000        1736.8154297       -4.8154296875    
 2731-61-5       1751.0000000        1744.2937012        6.7062988281    
 2731-66-20      1763.0000000        1747.2446289        15.755371094    
 2731-71-365     1772.0000000        1764.1372070        7.8627929688    
 2771-22-21      1796.0000000        1780.7446289        15.255371094    
 2718-17-6       1829.0000000        1823.9313965        5.0686035156    
 2718-27-13      1784.0000000        1761.2050781        22.794921875    
 2769-56-26      1705.0000000        1731.4516602       -26.451660156    
 2769-61-55      1708.0000000        1733.2808838       -25.280883789    
 2769-66-26      1715.0000000        1737.0125732       -22.012573242    
 2758-7-344      1835.0000000        1844.8572998       -9.8572998047    
 2675-48-348     1693.0000000        1732.1932373       -39.193237305    
 2675-61-4       1704.0000000        1744.4998779       -40.499877930    
 2675-66-20      1711.0000000        1748.8103027       -37.810302734    
 2675-71-365     1726.0000000        1758.1080322       -32.108032227    
 2637-42-351     1723.0000000        1719.0366211        3.9633789062    
 2637-48-349     1721.0000000        1737.6735840       -16.673583984    
 2637-55-355     1721.0000000        1747.9737549       -26.973754883    
 2637-61-4       1722.0000000        1750.1910400       -28.191040039    
 2637-66-51      1728.0000000        1755.0942383       -27.094238281    
 2637-71-365     1741.0000000        1763.1295166       -22.129516602    
 2641-16-355     1822.0000000        1830.9039307       -8.9039306641    
 2641-56-25      1716.0000000        1748.9898682       -32.989868164    
 2641-61-53      1720.0000000        1750.2530518       -30.253051758    
 2641-66-26      1717.0000000        1756.9801025       -39.980102539    
 2640-42-351     1705.0000000        1721.2457275       -16.245727539    
 2640-48-348     1712.0000000        1741.5382080       -29.538208008    
 2640-55-355     1717.0000000        1750.1020508       -33.102050781    
 2640-61-4       1721.0000000        1752.1835938       -31.183593750    
 2640-66-20      1732.0000000        1757.4938965       -25.493896484    
 2640-71-4       1743.0000000        1763.1264648       -20.126464844    
 2640-71-365     1745.0000000        1766.2355957       -21.235595703    
 2636-42-351     1705.0000000        1721.1982422       -16.198242188    
 2636-48-348     1710.0000000        1741.4274902       -31.427490234    
 2636-55-355     1704.0000000        1750.0341797       -46.034179688    
 2636-61-4       1718.0000000        1752.1600342       -34.160034180    
 2636-66-20      1727.0000000        1757.3961182       -30.396118164    
 2636-71-5       1738.0000000        1763.0874023       -25.087402344    
 2636-71-365     1741.0000000        1766.1789551       -25.178955078    
 2639-12-178     1856.0000000        1861.2298584       -5.2298583984    
 2639-16-354     1839.0000000        1834.3507080        4.6492919922    
 2639-42-351     1715.0000000        1724.1593018       -9.1593017578    
 2639-48-348     1725.0000000        1742.5794678       -17.579467773    
 2639-71-50      1753.0000000        1763.4685059       -10.468505859    
 2639-71-365     1754.0000000        1765.8234863       -11.823486328    
 2654-56-25      1734.0000000        1751.3330078       -17.333007812    
 2654-61-52      1736.0000000        1754.3254395       -18.325439453    
 2978-1-364      1871.0000000        1876.5261230       -5.5261230469    
 2978-4-93       1868.0000000        1876.5689697       -8.5689697266    
 2964-48-300     1788.0000000        1812.5992432       -24.599243164    
 2964-55-321     1815.0000000        1814.9869385       1.30615234375E-02
 2964-60-313     1823.0000000        1814.5374756        8.4625244141    
 2964-65-364     1827.0000000        1832.7677002       -5.7677001953    
 2964-71-349     1835.0000000        1857.2734375       -22.273437500    
 2965-71-350     1956.0000000        1859.6013184        96.398681641    
 2985-17-5       1729.0000000        1790.7893066       -61.789306641    
 2985-56-24      1725.0000000        1736.1026611       -11.102661133    
 2985-61-56      1753.0000000        1742.5084229        10.491577148    
 2985-66-18      1803.0000000        1784.4802246        18.519775391    
 2913-56-23      1741.0000000        1717.2960205        23.703979492    
 2921-1-86       1806.0000000        1828.3818359       -22.381835938    
 2921-7-3        1801.0000000        1826.0888672       -25.088867188    
 2921-10-320     1794.0000000        1822.0415039       -28.041503906    
 2921-12-361     1787.0000000        1813.3913574       -26.391357422    
 2938-56-26      1732.0000000        1743.2615967       -11.261596680    
 2938-61-59      1755.0000000        1749.8422852        5.1577148438    
 2938-66-20      1805.0000000        1788.6694336        16.330566406    
 2935-22-34      1724.0000000        1768.7147217       -44.714721680    
 2935-27-20      1702.0000000        1746.5563965       -44.556396484    
 2935-56-24      1723.0000000        1735.9970703       -12.997070312    
 2935-61-56      1746.0000000        1741.7911377        4.2088623047    
 2935-66-19      1797.0000000        1775.4508057        21.549194336    
 2943-48-275     1710.0000000        1750.1614990       -40.161499023    
 2944-48-275     1707.0000000        1752.9119873       -45.911987305    
 2936-56-24      1826.0000000        1809.6228027        16.377197266    
 2936-61-55      1834.0000000        1812.2155762        21.784423828    
 2937-17-5       1815.0000000        1842.0699463       -27.069946289    
 2937-22-34      1798.0000000        1822.1896973       -24.189697266    
 2937-32-85      1767.0000000        1798.7205811       -31.720581055    
 2937-42-349     1749.0000000        1782.2226562       -33.222656250    
 2937-48-341     1779.0000000        1784.4951172       -5.4951171875    
 2937-56-24      1805.0000000        1792.4592285        12.540771484    
 2937-65-302     1818.0000000        1818.8457031      -0.84570312500    
 2915-12-6       1856.0000000        1876.2327881       -20.232788086    
 2915-17-5       1829.0000000        1860.4837646       -31.483764648    
 2915-56-24      1818.0000000        1808.2619629        9.7380371094    
 2915-61-56      1828.0000000        1811.6931152        16.306884766    
 2915-66-19      1834.0000000        1828.9586182        5.0413818359    
 2863-48-275     1773.0000000        1743.5817871        29.418212891    
 2864-48-275     1775.0000000        1747.7899170        27.210083008    
 2885-17-5       1811.0000000        1812.4620361       -1.4620361328    
 2885-56-24      1794.0000000        1750.3580322        43.641967773    
 2885-61-56      1810.0000000        1756.3227539        53.677246094    
 2867-17-6       1763.0000000        1802.7128906       -39.712890625    
 2867-21-335     1730.0000000        1776.9833984       -46.983398438    
 2867-56-24      1732.0000000        1737.6749268       -5.6749267578    
 2867-61-56      1751.0000000        1743.3942871        7.6057128906    
 2867-66-19      1792.0000000        1768.3527832        23.647216797    
 2887-56-24      1732.0000000        1728.4288330        3.5711669922    
 2887-66-19      1779.0000000        1753.4967041        25.503295898    
 2886-17-6       1759.0000000        1796.6412354       -37.641235352    
 2886-56-24      1727.0000000        1729.9202881       -2.9202880859    
 2886-61-56      1748.0000000        1734.0781250        13.921875000    
 2886-66-27      1789.0000000        1757.1169434        31.883056641    
 2850-1-86       1825.0000000        1838.4136963       -13.413696289    
 2850-7-4        1820.0000000        1832.8013916       -12.801391602    
 2850-12-361     1812.0000000        1825.9589844       -13.958984375    
 2837-12-284     1798.0000000        1827.6324463       -29.632446289    
 2837-16-354     1759.0000000        1798.6762695       -39.676269531    
 2837-22-34      1730.0000000        1769.3253174       -39.325317383    
 2837-32-85      1685.0000000        1722.1624756       -37.162475586    
 2837-37-34      1676.0000000        1712.1094971       -36.109497070    
 2837-42-349     1690.0000000        1704.2250977       -14.225097656    
 2837-48-341     1709.0000000        1716.0788574       -7.0788574219    
 2837-56-24      1730.0000000        1729.8979492       0.10205078125    
 2837-60-319     1750.0000000        1733.5264893        16.473510742    
 2837-65-298     1789.0000000        1752.7447510        36.255249023    
 2837-71-11      1802.0000000        1778.8253174        23.174682617    
 2837-71-365     1807.0000000        1782.1464844        24.853515625    
 2818-17-6       1760.0000000        1800.8405762       -40.840576172    
 2818-56-24      1738.0000000        1730.1756592        7.8243408203    
 2818-61-52      1757.0000000        1734.1397705        22.860229492    
 2818-66-25      1793.0000000        1751.6400146        41.359985352    
 2800-48-348     1708.0000000        1718.4693604       -10.469360352    
 2800-55-355     1729.0000000        1730.5577393       -1.5577392578    
 2800-61-7       1747.0000000        1734.6280518        12.371948242    
 2800-65-341     1780.0000000        1749.8280029        30.171997070    
 2800-71-50      1796.0000000        1773.1197510        22.880249023    
 2800-71-365     1797.0000000        1776.0804443        20.919555664    
 2786-56-24      1730.0000000        1731.0015869       -1.0015869141    
 2786-61-52      1745.0000000        1735.0421143        9.9578857422    
 2786-66-25      1781.0000000        1750.0889893        30.911010742    
 2770-1-86       1835.0000000        1846.6906738       -11.690673828    
 2770-7-4        1831.0000000        1843.2769775       -12.276977539    
 2770-12-361     1826.0000000        1835.5733643       -9.5733642578    
 2744-56-24      1736.0000000        1732.0324707        3.9675292969    
 2740-56-24      1735.0000000        1731.9293213        3.0706787109    
 2741-17-6       1783.0000000        1810.7518311       -27.751831055    
 2694-1-86       1871.0000000        1854.6486816        16.351318359    
 2694-5-67       1870.0000000        1852.8133545        17.186645508    
 2643-2-60       1888.0000000        1880.8212891        7.1787109375    
 2643-6-284      1886.0000000        1880.1993408        5.8006591797    
 2643-11-275     1876.0000000        1878.8231201       -2.8231201172    
 2933-56-23      1728.0000000        1717.2105713        10.789428711    
 2851-16-354     1770.0000000        1795.8867188       -25.886718750    
 2851-65-341     1790.0000000        1740.0482178        49.951782227    
 2851-71-50      1799.0000000        1764.9765625        34.023437500    
 2851-71-365     1799.0000000        1767.9910889        31.008911133    
 2854-65-341     1784.0000000        1743.0527344        40.947265625    
 2854-71-50      1797.0000000        1767.8367920        29.163208008    
 2854-71-365     1798.0000000        1770.7663574        27.233642578    
 2796-61-52      1752.0000000        1733.7263184        18.273681641    
 2796-66-33      1772.0000000        1746.6213379        25.378662109    
 2712-42-351     1745.0000000        1717.6016846        27.398315430    
 2712-48-348     1750.0000000        1729.9260254        20.073974609    
 2712-56-27      1756.0000000        1741.4475098        14.552490234    
 2712-61-7       1758.0000000        1746.3137207        11.686279297    
 2712-66-55      1770.0000000        1753.4923096        16.507690430    
 2712-71-365     1778.0000000        1770.0260010        7.9739990234    
 2709-55-355     1767.0000000        1751.4481201        15.551879883    
 2709-61-7       1781.0000000        1756.4177246        24.582275391    
 2709-65-341     1781.0000000        1761.0726318        19.927368164    
 2709-71-365     1785.0000000        1775.1152344        9.8847656250    
 2702-42-351     1782.0000000        1718.1422119        63.857788086    
 2702-48-348     1773.0000000        1729.5275879        43.472412109    
 2702-56-27      1770.0000000        1741.0598145        28.940185547    
 2702-61-7       1770.0000000        1745.8350830        24.164916992    
 2702-65-341     1777.0000000        1753.2203369        23.779663086    
 2702-71-365     1790.0000000        1770.5693359        19.430664062    
 2711-39-335     1752.0000000        1719.8325195        32.167480469    
 2711-56-26      1755.0000000        1740.7426758        14.257324219    
 2711-61-7       1757.0000000        1745.4807129        11.519287109    
 2711-65-341     1768.0000000        1753.2836914        14.716308594    
 2711-71-365     1779.0000000        1771.1695557        7.8304443359    
 2713-42-351     1746.0000000        1716.3027344        29.697265625    
 2713-56-26      1755.0000000        1739.4263916        15.573608398    
 2713-61-7       1756.0000000        1744.0988770        11.901123047    
 2713-65-341     1770.0000000        1752.4107666        17.589233398    
 2713-71-365     1780.0000000        1771.1593018        8.8406982422    
 2682-56-23      1758.0000000        1737.7655029        20.234497070    
 2682-61-53      1756.0000000        1740.4895020        15.510498047    
 2682-66-28      1763.0000000        1749.2946777        13.705322266    
 2866-12-332     1810.0000000        1821.7170410       -11.717041016    
 2866-17-6       1764.0000000        1795.7718506       -31.771850586    
 2998-43-6       2076.0000000        2058.1091309        17.890869141    
 3416-56-26      1932.0000000        1885.0185547        46.981445312    
 3416-61-55      1926.0000000        1876.9082031        49.091796875    
 3416-66-19      1911.0000000        1880.1392822        30.860717773    
 2986-8-305      1907.0000000        1916.1237793       -9.1237792969    
 2960-1-365      1941.0000000        1936.5101318        4.4898681641    
 2961-56-25      1958.0000000        1901.6363525        56.363647461    
 2961-61-59      1947.0000000        1893.2078857        53.792114258    
 2961-66-19      1917.0000000        1893.9309082        23.069091797    
 2957-56-25      1965.0000000        1909.3002930        55.699707031    
 2957-61-59      1978.0000000        1900.1210938        77.878906250    
 2988-1-51       1886.0000000        1898.3647461       -12.364746094    
 2984-8-213      1873.0000000        1895.4276123       -22.427612305    
 2971-7-60       1916.0000000        1922.3122559       -6.3122558594    
 2969-56-25      1917.0000000        1855.8356934        61.164306641    
 2969-61-55      1914.0000000        1850.5405273        63.459472656    
 2969-66-19      1855.0000000        1859.2082520       -4.2082519531    
 2976-56-25      1862.0000000        1847.7382812        14.261718750    
 2976-61-55      1862.0000000        1843.1623535        18.837646484    
 2976-66-19      1846.0000000        1853.3138428       -7.3138427734    
 2972-56-25      1858.0000000        1845.9989014        12.001098633    
 2972-66-19      1844.0000000        1852.6588135       -8.6588134766    
 2919-21-335     1807.0000000        1844.4908447       -37.490844727    
 2946-56-25      1956.0000000        1908.0655518        47.934448242    
 2946-66-19      1917.0000000        1899.5573730        17.442626953    
 2927-22-17      1953.0000000        1952.5251465       0.47485351562    
 2927-27-32      1950.0000000        1947.5910645        2.4089355469    
 2955-8-276      1884.0000000        1928.4904785       -44.490478516    
 2955-12-40      1882.0000000        1923.8039551       -41.803955078    
 2955-17-1       1870.0000000        1917.6391602       -47.639160156    
 2955-27-32      1849.0000000        1899.7186279       -50.718627930    
 2955-32-12      1857.0000000        1893.3425293       -36.342529297    
 2955-37-1       1849.0000000        1882.6418457       -33.641845703    
 2926-56-26      1971.0000000        1925.3931885        45.606811523    
 2926-61-59      1956.0000000        1916.9388428        39.061157227    
 2942-1-365      1980.0000000        1994.8291016       -14.829101562    
 2916-56-25      1981.0000000        1937.6229248        43.377075195    
 2916-61-59      1963.0000000        1927.9219971        35.078002930    
 2916-66-20      1933.0000000        1922.5709229        10.429077148    
 2941-42-364     2010.0000000        2003.1646729        6.8353271484    
 2941-48-335     2013.0000000        1996.4753418        16.524658203    
 2941-56-23      2015.0000000        1983.5333252        31.466674805    
 2941-61-59      2009.0000000        1970.2396240        38.760375977    
 2941-66-26      2003.0000000        1961.1162109        41.883789062    
 2941-71-54      1985.0000000        1958.5389404        26.461059570    
 3185-34-152     2050.0000000        2047.1383057        2.8616943359    
 2925-42-364     2042.0000000        2019.8376465        22.162353516    
 2925-48-335     2045.0000000        2012.8991699        32.100830078    
 2925-56-23      2044.0000000        1999.0312500        44.968750000    
 2925-66-26      2024.0000000        1974.8746338        49.125366211    
 2925-71-54      2018.0000000        1970.4589844        47.541015625    
 2954-42-363     2095.0000000        2053.2128906        41.787109375    
 2954-56-23      2088.0000000        2031.8922119        56.107788086    
 2954-61-59      2078.0000000        2020.2739258        57.726074219    
 2954-66-27      2077.0000000        2009.6784668        67.321533203    
 2889-42-364     2041.0000000        2035.2133789        5.7866210938    
 2889-48-336     2056.0000000        2028.0588379        27.941162109    
 2889-56-24      2053.0000000        2013.2070312        39.792968750    
 2880-22-18      2092.0000000        2081.2548828        10.745117188    
 2880-27-32      2088.0000000        2075.5644531        12.435546875    
 2880-38-1       2076.0000000        2060.9150391        15.084960938    
 2880-42-363     2076.0000000        2052.2026367        23.797363281    
 2893-1-274      2091.0000000        2076.8940430        14.105957031    
 2893-4-279      2087.0000000        2073.3933105        13.606689453    
 2893-5-285      2084.0000000        2072.5366211        11.463378906    
 2893-12-46      2075.0000000        2064.5729980        10.427001953    
 2893-17-19      2069.0000000        2061.9677734        7.0322265625    
 2893-22-1       2063.0000000        2061.6638184        1.3361816406    
 2893-27-32      2062.0000000        2055.9790039        6.0209960938    
 2893-32-14      2062.0000000        2053.1315918        8.8684082031    
 2893-38-1       2055.0000000        2040.0645752        14.935424805    
 2896-42-363     2024.0000000        2015.8912354        8.1087646484    
 2853-42-364     2049.0000000        2037.2679443        11.732055664    
 2853-48-336     2053.0000000        2029.9062500        23.093750000    
 2853-56-24      2052.0000000        2014.7260742        37.273925781    
 2853-61-59      2043.0000000        1999.5393066        43.460693359    
 2853-66-27      2025.0000000        1985.8847656        39.115234375    
 2853-71-55      2016.0000000        1982.0794678        33.920532227    
 2858-42-363     1992.0000000        2000.7517090       -8.7517089844    
 2858-48-336     2008.0000000        1995.0277100        12.972290039    
 2858-56-24      2017.0000000        1981.9655762        35.034423828    
 2858-61-59      2004.0000000        1968.5174561        35.482543945    
 2858-66-27      1969.0000000        1954.5980225        14.401977539    
 2858-71-62      1974.0000000        1958.4317627        15.568237305    
 2904-2-1        2009.0000000        2017.4780273       -8.4780273438    
 2892-1-360      2007.0000000        2020.7701416       -13.770141602    
 2892-7-65       1995.0000000        2009.0554199       -14.055419922    
 2892-11-334     1988.0000000        2006.1307373       -18.130737305    
 2892-16-318     1984.0000000        2007.3782959       -23.378295898    
 2892-22-34      1982.0000000        2002.4106445       -20.410644531    
 2892-27-32      1986.0000000        1998.3587646       -12.358764648    
 2892-31-351     1982.0000000        1990.8900146       -8.8900146484    
 2892-36-50      1996.0000000        1977.8226318        18.177368164    
 2909-56-25      1986.0000000        1945.2453613        40.754638672    
 2909-61-59      1960.0000000        1935.2293701        24.770629883    
 2909-66-19      1938.0000000        1928.3057861        9.6942138672    
 2911-56-25      1984.0000000        1943.7893066        40.210693359    
 2911-61-59      1964.0000000        1933.9439697        30.056030273    
 2911-66-19      1937.0000000        1927.3079834        9.6920166016    
 2884-66-32      1943.0000000        1934.1927490        8.8072509766    
 2865-8-91       1980.0000000        2006.2103271       -26.210327148    
 2865-48-342     1982.0000000        1964.1220703        17.877929688    
 2848-66-32      1961.0000000        1947.8310547        13.168945312    
 2881-48-342     1981.0000000        1960.6069336        20.393066406    
 2859-8-121      1997.0000000        2006.7132568       -9.7132568359    
 2871-56-24      1811.0000000        1785.4505615        25.549438477    
 2871-61-59      1816.0000000        1799.5253906        16.474609375    
 2871-66-27      1823.0000000        1814.9069824        8.0930175781    
 2811-17-6       1836.0000000        1855.3912354       -19.391235352    
 2811-22-34      1823.0000000        1838.4525146       -15.452514648    
 2811-56-24      1832.0000000        1780.8260498        51.173950195    
 2811-61-59      1835.0000000        1795.7404785        39.259521484    
 2834-48-342     1994.0000000        1970.2640381        23.735961914    
 2835-48-342     1994.0000000        1971.3284912        22.671508789    
 2835-56-24      2006.0000000        1956.3563232        49.643676758    
 2849-42-363     1982.0000000        1988.7316895       -6.7316894531    
 2849-48-336     2003.0000000        1984.8614502        18.138549805    
 2828-55-343     2013.0000000        1975.1116943        37.888305664    
 2828-61-38      2000.0000000        1962.5635986        37.436401367    
 2828-66-55      1961.0000000        1947.9829102        13.017089844    
 2828-71-365     1963.0000000        1951.4105225        11.589477539    
 2846-8-32       2008.0000000        2020.5396729       -12.539672852    
 2847-56-24      2005.0000000        1959.0083008        45.991699219    
 2833-1-283      2018.0000000        2037.3051758       -19.305175781    
 2821-43-27      1983.0000000        1997.5997314       -14.599731445    
 2821-48-334     1999.0000000        1985.4492188        13.550781250    
 2821-56-23      2011.0000000        1971.5502930        39.449707031    
 2821-61-54      1994.0000000        1960.6555176        33.344482422    
 2821-66-13      1953.0000000        1942.7434082        10.256591797    
 2817-1-364      2034.0000000        2049.1445312       -15.144531250    
 2805-48-334     2001.0000000        1990.1076660        10.892333984    
 2805-56-23      2012.0000000        1976.1209717        35.879028320    
 2805-61-53      1994.0000000        1964.6551514        29.344848633    
 2805-66-20      1954.0000000        1946.8524170        7.1475830078    
 2798-8-32       2025.0000000        2046.9785156       -21.978515625    
 2792-48-334     2008.0000000        2000.8289795        7.1710205078    
 2792-56-23      2019.0000000        1986.1158447        32.884155273    
 2792-61-53      2001.0000000        1973.3540039        27.645996094    
 2792-66-20      1972.0000000        1955.6206055        16.379394531    
 2820-3-338      2046.0000000        2057.5161133       -11.516113281    
 2820-6-224      2047.0000000        2057.7299805       -10.729980469    
 2820-7-11       2038.0000000        2057.0417480       -19.041748047    
 2820-12-46      2037.0000000        2050.6367188       -13.636718750    
 2820-17-19      2033.0000000        2051.5283203       -18.528320312    
 2820-22-17      2029.0000000        2050.0441895       -21.044189453    
 2820-27-32      2035.0000000        2044.2404785       -9.2404785156    
 2820-31-351     2032.0000000        2038.8314209       -6.8314208984    
 2820-37-28      2030.0000000        2024.5584717        5.4415283203    
 2820-48-334     2020.0000000        2006.9523926        13.047607422    
 2820-56-23      2034.0000000        1993.2463379        40.753662109    
 2820-60-319     2016.0000000        1978.9210205        37.078979492    
 2820-65-299     1978.0000000        1963.1577148        14.842285156    
 2820-71-365     1985.0000000        1964.2468262        20.753173828    
 2802-48-334     2023.0000000        2005.2052002        17.794799805    
 2802-56-23      2039.0000000        1994.0045166        44.995483398    
 2802-61-53      2020.0000000        1981.0994873        38.900512695    
 2802-66-20      2007.0000000        1963.9526367        43.047363281    
 2795-17-19      2040.0000000        2059.5664062       -19.566406250    
 2795-22-17      2037.0000000        2057.1247559       -20.124755859    
 2795-32-13      2041.0000000        2047.0397949       -6.0397949219    
 2795-37-345     2028.0000000        2030.1636963       -2.1636962891    
 2795-49-5       2031.0000000        2011.9697266        19.030273438    
 2795-55-343     2037.0000000        1998.2899170        38.710083008    
 2795-71-365     1992.0000000        1967.4378662        24.562133789    
 2722-61-53      2062.0000000        2015.8944092        46.105590820    
 2723-61-53      2064.0000000        2015.1662598        48.833740234    
 2723-66-20      2037.0000000        1996.8262939        40.173706055    
 2715-48-335     2064.0000000        2044.4578857        19.542114258    
 2715-56-23      2077.0000000        2030.3615723        46.638427734    
 2715-61-53      2059.0000000        2014.7026367        44.297363281    
 2715-66-20      2034.0000000        1995.9311523        38.068847656    
 2754-1-365      2084.0000000        2096.2404785       -12.240478516    
 2764-48-334     2045.0000000        2024.4398193        20.560180664    
 2764-56-23      2057.0000000        2009.9888916        47.011108398    
 2764-61-53      2040.0000000        1995.6837158        44.316284180    
 2764-66-20      2012.0000000        1978.3319092        33.668090820    
 2732-48-335     2047.0000000        2027.7764893        19.223510742    
 2732-56-20      2062.0000000        2013.2708740        48.729125977    
 2739-1-360      2087.0000000        2100.3535156       -13.353515625    
 2736-8-32       2077.0000000        2087.3774414       -10.377441406    
 2724-48-334     2054.0000000        2036.0480957        17.951904297    
 2724-56-23      2067.0000000        2021.8098145        45.190185547    
 2724-61-53      2053.0000000        2007.3811035        45.618896484    
 2724-66-20      2027.0000000        1988.8632812        38.136718750    
 2737-42-363     2008.0000000        2022.6673584       -14.667358398    
 2717-2-1        2069.0000000        2084.5544434       -15.554443359    
 2716-8-32       2057.0000000        2076.3720703       -19.372070312    
 2727-11-121     2014.0000000        2047.9281006       -33.928100586    
 2789-12-271     1861.0000000        1870.0518799       -9.0518798828    
 2696-1-364      2056.0000000        2081.1738281       -25.173828125    
 2696-6-341      2041.0000000        2074.1286621       -33.128662109    
 2696-11-334     2035.0000000        2065.6174316       -30.617431641    
 2696-16-313     2031.0000000        2065.1718750       -34.171875000    
 2696-22-34      2031.0000000        2062.5490723       -31.549072266    
 2708-48-337     1999.0000000        2019.1682129       -20.168212891    
 2708-56-19      1995.0000000        2005.1562500       -10.156250000    
 2708-66-28      1983.0000000        1973.6933594        9.3066406250    
 2701-32-43      2047.0000000        2062.5556641       -15.555664062    
 2701-42-363     2029.0000000        2036.1547852       -7.1547851562    
 2701-56-19      2055.0000000        2012.4305420        42.569458008    
 2668-42-363     2099.0000000        2049.0761719        49.923828125    
 2668-56-19      2095.0000000        2024.5354004        70.464599609    
 2668-61-52      2091.0000000        2008.3421631        82.657836914    
 2668-66-35      2087.0000000        1992.1600342        94.839965820    
 2681-8-32       2095.0000000        2109.3046875       -14.304687500    
 2678-48-335     2074.0000000        2051.4731445        22.526855469    
 2678-56-23      2096.0000000        2036.0550537        59.944946289    
 2678-61-54      2071.0000000        2020.2951660        50.704833984    
 2678-66-20      2046.0000000        2000.9575195        45.042480469    
 2690-66-55      2036.0000000        1989.1846924        46.815307617    
 2692-2-1        2090.0000000        2101.3701172       -11.370117188    
 2676-43-27      2084.0000000        2082.5253906        1.4746093750    
 2676-48-335     2082.0000000        2071.5739746        10.426025391    
 2676-56-23      2090.0000000        2052.4768066        37.523193359    
 2676-61-53      2073.0000000        2033.6893311        39.310668945    
 2676-66-13      2057.0000000        2015.1206055        41.879394531    
 2705-48-335     2072.0000000        2055.5605469        16.439453125    
 2705-56-23      2084.0000000        2038.2562256        45.743774414    
 2705-61-54      2067.0000000        2022.4366455        44.563354492    
 2705-66-18      2041.0000000        2002.8337402        38.166259766    
 2707-43-27      2068.0000000        2058.9758301        9.0241699219    
 2707-48-335     2067.0000000        2050.7678223        16.232177734    
 2707-56-23      2080.0000000        2035.2733154        44.726684570    
 2707-61-53      2062.0000000        2019.2557373        42.744262695    
 2707-66-20      2036.0000000        2000.1065674        35.893432617    
 2689-48-335     2068.0000000        2050.7883301        17.211669922    
 2689-56-20      2084.0000000        2034.5533447        49.446655273    
 2656-43-27      2089.0000000        2077.7307129        11.269287109    
 2656-48-334     2086.0000000        2067.8481445        18.151855469    
 2656-56-23      2110.0000000        2050.5141602        59.485839844    
 2656-61-53      2083.0000000        2033.3331299        49.666870117    
 2656-66-20      2058.0000000        2014.1958008        43.804199219    
 2674-33-76      2097.0000000        2103.6457520       -6.6457519531    
 2973-56-19      2361.0000000        2351.6298828        9.3701171875    
 2973-66-32      2345.0000000        2322.5815430        22.418457031    
 2973-71-56      2326.0000000        2310.2697754        15.730224609    
 2977-38-91      2353.0000000        2368.9753418       -15.975341797    
 2977-43-6       2361.0000000        2365.7832031       -4.7832031250    
 2977-48-335     2303.0000000        2364.7841797       -61.784179688    
 2977-66-32      2340.0000000        2325.8942871        14.105712891    
 2991-42-362     2218.0000000        2222.9978027       -4.9978027344    
 2991-48-334     2217.0000000        2218.7395020       -1.7395019531    
 2991-56-27      2215.0000000        2211.1923828        3.8076171875    
 2991-61-59      2212.0000000        2203.4104004        8.5895996094    
 2991-66-25      2208.0000000        2194.6704102        13.329589844    
 2991-71-57      2201.0000000        2185.7927246        15.207275391    
 2966-42-362     2195.0000000        2196.9929199       -1.9929199219    
 2932-42-362     2079.0000000        2070.2814941        8.7185058594    
 2932-48-336     2078.0000000        2062.7546387        15.245361328    
 2932-56-24      2073.0000000        2047.4858398        25.514160156    
 2914-42-357     2126.0000000        2101.4167480        24.583251953    
 2914-48-365     2119.0000000        2092.5024414        26.497558594    
 2914-55-342     2106.0000000        2072.1696777        33.830322266    
 2914-61-38      2100.0000000        2058.0642090        41.935791016    
 2914-66-40      2091.0000000        2044.3808594        46.619140625    
 2914-71-335     2076.0000000        2030.1893311        45.810668945    
 2940-55-342     2119.0000000        2107.7006836        11.299316406    
 2917-42-365     2135.0000000        2139.0649414       -4.0649414062    
 2917-48-336     2132.0000000        2131.6081543       0.39184570312    
 2917-56-26      2119.0000000        2113.4841309        5.5158691406    
 2917-61-59      2102.0000000        2100.6794434        1.3205566406    
 2917-66-27      2108.0000000        2087.8977051        20.102294922    
 2917-71-55      2097.0000000        2075.4401855        21.559814453    
 2924-42-362     2164.0000000        2177.7617188       -13.761718750    
 2930-36-43      2337.0000000        2336.4455566       0.55444335938    
 2930-56-27      2345.0000000        2316.9445801        28.055419922    
 2930-66-33      2292.0000000        2281.5009766        10.499023438    
 2930-71-56      2273.0000000        2268.6293945        4.3706054688    
 2929-42-357     2414.0000000        2402.4863281        11.513671875    
 2929-48-355     2427.0000000        2401.0810547        25.918945312    
 2929-55-342     2428.0000000        2386.7683105        41.231689453    
 2929-60-362     2395.0000000        2367.5334473        27.466552734    
 2929-66-1       2345.0000000        2335.8364258        9.1635742188    
 2929-71-335     2323.0000000        2324.8972168       -1.8972167969    
 2888-43-6       2314.0000000        2306.7673340        7.2326660156    
 2888-48-334     2312.0000000        2297.7861328        14.213867188    
 2888-56-26      2312.0000000        2278.7861328        33.213867188    
 2888-66-32      2268.0000000        2245.4096680        22.590332031    
 2888-71-56      2248.0000000        2231.1889648        16.811035156    
 2856-32-84      2310.0000000        2301.5935059        8.4064941406    
 2852-43-5       2289.0000000        2300.4953613       -11.495361328    
 2852-56-19      2286.0000000        2279.1362305        6.8637695312    
 2852-66-35      2251.0000000        2248.7365723        2.2634277344    
 2852-71-56      2229.0000000        2233.0253906       -4.0253906250    
 2869-43-8       2322.0000000        2326.9626465       -4.9626464844    
 2869-48-334     2322.0000000        2323.2355957       -1.2355957031    
 2869-56-24      2325.0000000        2307.8469238        17.153076172    
 2899-42-362     2169.0000000        2190.3793945       -21.379394531    
 2899-48-338     2165.0000000        2185.1914062       -20.191406250    
 2903-33-257     2172.0000000        2190.2126465       -18.212646484    
 2908-42-357     2149.0000000        2165.0747070       -16.074707031    
 2908-48-356     2145.0000000        2158.4958496       -13.495849609    
 2908-55-342     2130.0000000        2140.0205078       -10.020507812    
 2908-66-26      2118.0000000        2113.2814941        4.7185058594    
 2908-71-335     2103.0000000        2098.7924805        4.2075195312    
 2879-55-342     2098.0000000        2067.8796387        30.120361328    
 2879-61-40      2094.0000000        2053.9052734        40.094726562    
 2879-66-19      2087.0000000        2040.8289795        46.171020508    
 2879-71-335     2071.0000000        2025.4251709        45.574829102    
 2878-66-26      2111.0000000        2084.2253418        26.774658203    
 2878-71-335     2094.0000000        2067.8630371        26.136962891    
 2897-1-274      2168.0000000        2135.5180664        32.481933594    
 2897-6-284      2163.0000000        2133.1828613        29.817138672    
 2898-11-34      2156.0000000        2126.9616699        29.038330078    
 2898-16-361     2147.0000000        2121.0004883        25.999511719    
 2898-37-33      2120.0000000        2105.9409180        14.059082031    
 2882-43-32      2090.0000000        2063.2792969        26.720703125    
 2882-48-365     2088.0000000        2055.8540039        32.145996094    
 2882-55-342     2079.0000000        2039.1389160        39.861083984    
 2882-61-38      2073.0000000        2024.4506836        48.549316406    
 2882-66-40      2061.0000000        2011.3715820        49.628417969    
 2882-71-335     2048.0000000        2002.3157959        45.684204102    
 2870-33-274     2085.0000000        2085.0402832      -4.02832031250E-02
 2862-33-135     2110.0000000        2099.1667480        10.833251953    
 2824-66-31      2077.0000000        2029.4290771        47.570922852    
 2824-71-54      2069.0000000        2019.4614258        49.538574219    
 2807-49-5       2134.0000000        2110.1826172        23.817382812    
 2807-55-342     2112.0000000        2086.6301270        25.369873047    
 2807-71-62      2078.0000000        2037.9891357        40.010864258    
 2797-71-62      2081.0000000        2054.2922363        26.707763672    
 2845-66-35      2167.0000000        2171.3977051       -4.3977050781    
 2845-71-62      2154.0000000        2156.3708496       -2.3708496094    
 2841-1-274      2225.0000000        2225.9550781      -0.95507812500    
 2841-6-284      2221.0000000        2224.6953125       -3.6953125000    
 2841-11-34      2216.0000000        2222.3725586       -6.3725585938    
 2841-16-361     2204.0000000        2217.1315918       -13.131591797    
 2841-38-91      2174.0000000        2195.6970215       -21.697021484    
 2841-39-91      2173.0000000        2193.9953613       -20.995361328    
 2841-42-364     2172.0000000        2191.5766602       -19.576660156    
 2841-48-336     2167.0000000        2183.5861816       -16.586181641    
 2815-56-24      2141.0000000        2117.9233398        23.076660156    
 2801-33-52      2182.0000000        2172.6689453        9.3310546875    
 2844-43-6       2206.0000000        2248.7397461       -42.739746094    
 2844-48-334     2200.0000000        2238.2224121       -38.222412109    
 2844-56-19      2197.0000000        2219.9548340       -22.954833984    
 2844-66-34      2189.0000000        2190.0002441       -1.0002441406    
 2844-71-61      2232.0000000        2175.7770996        56.222900391    
 2819-56-17      2213.0000000        2204.4440918        8.5559082031    
 2825-56-19      2187.0000000        2233.3276367       -46.327636719    
 2825-66-35      2215.0000000        2205.6806641        9.3193359375    
 2794-33-62      2149.0000000        2194.9279785       -45.927978516    
 2791-42-356     2195.0000000        2172.6132812        22.386718750    
 2791-48-337     2171.0000000        2165.6691895        5.3308105469    
 2791-61-61      2160.0000000        2123.6494141        36.350585938    
 2791-66-26      2146.0000000        2107.2187500        38.781250000    
 2806-42-356     2222.0000000        2211.0781250        10.921875000    
 2806-48-337     2214.0000000        2202.6306152        11.369384766    
 2840-43-5       2293.0000000        2318.3032227       -25.303222656    
 2840-48-334     2294.0000000        2314.7580566       -20.758056641    
 2840-56-19      2291.0000000        2299.3154297       -8.3154296875    
 2840-61-56      2278.0000000        2285.6018066       -7.6018066406    
 2840-66-32      2257.0000000        2268.9870605       -11.987060547    
 2827-66-32      2236.0000000        2224.3808594        11.619140625    
 2827-71-61      2213.0000000        2204.8327637        8.1672363281    
 2813-66-26      2210.0000000        2196.3593750        13.640625000    
 2813-71-323     2178.0000000        2168.9941406        9.0058593750    
 2814-42-357     2232.0000000        2237.0454102       -5.0454101562    
 2814-55-342     2222.0000000        2213.9936523        8.0063476562    
 2814-61-35      2215.0000000        2200.3869629        14.613037109    
 2814-66-26      2200.0000000        2187.6865234        12.313476562    
 2804-42-357     2231.0000000        2238.4494629       -7.4494628906    
 2804-55-342     2222.0000000        2214.5273438        7.4726562500    
 2804-61-35      2214.0000000        2199.9975586        14.002441406    
 2804-66-26      2199.0000000        2185.2243652        13.775634766    
 2812-42-335     2311.0000000        2283.9150391        27.084960938    
 2812-48-355     2307.0000000        2274.6352539        32.364746094    
 2812-55-342     2303.0000000        2265.3012695        37.698730469    
 2812-61-35      2295.0000000        2253.5256348        41.474365234    
 2812-71-323     2247.0000000        2216.6271973        30.372802734    
 2765-42-357     2207.0000000        2194.0175781        12.982421875    
 2765-48-355     2200.0000000        2173.0690918        26.930908203    
 2765-55-342     2197.0000000        2177.3515625        19.648437500    
 2765-61-35      2192.0000000        2166.0585938        25.941406250    
 2765-66-26      2180.0000000        2154.7019043        25.298095703    
 2765-71-323     2156.0000000        2128.9931641        27.006835938    
 2728-8-69       2235.0000000        2212.5932617        22.406738281    
 2719-42-357     2193.0000000        2156.0251465        36.974853516    
 2719-48-356     2188.0000000        2147.1982422        40.801757812    
 2719-55-343     2181.0000000        2126.2216797        54.778320312    
 2726-42-357     2200.0000000        2183.1254883        16.874511719    
 2726-48-355     2193.0000000        2171.6574707        21.342529297    
 2726-55-342     2190.0000000        2162.3618164        27.638183594    
 2726-61-35      2185.0000000        2149.1101074        35.889892578    
 2726-66-26      2173.0000000        2136.3657227        36.634277344    
 2726-71-323     2151.0000000        2112.2634277        38.736572266    
 2784-71-62      2079.0000000        2052.4116211        26.588378906    
 2730-56-24      2146.0000000        2112.6469727        33.353027344    
 2730-61-54      2138.0000000        2093.4406738        44.559326172    
 2730-66-18      2121.0000000        2075.6335449        45.366455078    
 2781-16-361     2176.0000000        2178.2810059       -2.2810058594    
 2782-17-7       2174.0000000        2173.5187988       0.48120117188    
 2782-71-62      2077.0000000        2047.6346436        29.365356445    
 2762-48-338     2121.0000000        2123.8750000       -2.8750000000    
 2785-56-23      2118.0000000        2097.0847168        20.915283203    
 2785-66-19      2086.0000000        2061.3842773        24.615722656    
 2757-56-24      2116.0000000        2094.0292969        21.970703125    
 2757-66-19      2086.0000000        2057.7429199        28.257080078    
 2763-56-24      2114.0000000        2089.3105469        24.689453125    
 2763-66-19      2080.0000000        2052.8801270        27.119873047    
 2729-56-24      2122.0000000        2088.0683594        33.931640625    
 2729-66-18      2088.0000000        2049.9919434        38.008056641    
 2720-16-298     2169.0000000        2167.2744141        1.7255859375    
 2720-22-31      2162.0000000        2163.3979492       -1.3979492188    
 2706-66-35      2088.0000000        2061.3847656        26.615234375    
 2710-56-24      2141.0000000        2100.0390625        40.960937500    
 2755-56-23      2094.0000000        2067.4902344        26.509765625    
 2755-61-54      2084.0000000        2048.3120117        35.687988281    
 2755-66-18      2074.0000000        2031.4404297        42.559570312    
 2735-1-365      2237.0000000        2151.6757812        85.324218750    
 2778-33-182     2092.0000000        2094.3964844       -2.3964843750    
 2759-34-121     2105.0000000        2101.1896973        3.8103027344    
 2738-66-26      2051.0000000        2013.5831299        37.416870117    
 2738-71-348     2053.0000000        2006.4924316        46.507568359    
 2733-10-280     2107.0000000        2136.0290527       -29.029052734    
 2733-22-19      2094.0000000        2126.6640625       -32.664062500    
 2733-42-362     2087.0000000        2094.1503906       -7.1503906250    
 2733-48-362     2085.0000000        2083.3635254        1.6364746094    
 2733-55-342     2082.0000000        2063.3537598        18.646240234    
 2733-61-38      2071.0000000        2043.5632324        27.436767578    
 2733-66-40      2050.0000000        2025.9840088        24.015991211    
 2733-71-348     2045.0000000        2016.3247070        28.675292969    
 2698-49-8       2085.0000000        2077.6909180        7.3090820312    
 2698-55-342     2092.0000000        2058.2243652        33.775634766    
 2698-61-10      2091.0000000        2038.2532959        52.746704102    
 2698-71-348     2053.0000000        2012.1853027        40.814697266    
 2665-42-362     2093.0000000        2093.2836914      -0.28369140625    
 2665-48-362     2091.0000000        2080.8771973        10.122802734    
 2665-55-342     2098.0000000        2061.9138184        36.086181641    
 2665-61-4       2086.0000000        2043.0339355        42.966064453    
 2665-66-26      2056.0000000        2023.6982422        32.301757812    
 2665-71-348     2061.0000000        2015.9405518        45.059448242    
 2664-1-360      2134.0000000        2154.0139160       -20.013916016    
 2664-6-341      2125.0000000        2149.3764648       -24.376464844    
 2662-42-362     2094.0000000        2103.4101562       -9.4101562500    
 2662-48-361     2091.0000000        2091.2980957      -0.29809570312    
 2662-55-342     2094.0000000        2069.0351562        24.964843750    
 2662-71-348     2057.0000000        2021.9040527        35.095947266    
 2659-55-342     2093.0000000        2069.0351562        23.964843750    
 2659-61-11      2063.0000000        2049.1459961        13.854003906    
 2659-66-26      2057.0000000        2030.6022949        26.397705078    
 2659-71-348     2060.0000000        2021.9040527        38.095947266    
 2658-1-92       2100.0000000        2163.9484863       -63.948486328    
 2742-17-3       2141.0000000        2153.4980469       -12.498046875    
 2742-22-1       2140.0000000        2149.6330566       -9.6330566406    
 2742-38-91      2123.0000000        2126.3542480       -3.3542480469    
 2742-56-24      2107.0000000        2082.6784668        24.321533203    
 2742-61-54      2093.0000000        2062.0368652        30.963134766    
 2742-66-31      2068.0000000        2043.9266357        24.073364258    
 2742-71-62      2064.0000000        2032.8984375        31.101562500    
 2683-42-362     2093.0000000        2104.7014160       -11.701416016    
 2683-48-362     2090.0000000        2092.7551270       -2.7551269531    
 2683-55-342     2081.0000000        2071.6545410        9.3454589844    
 2683-61-32      2079.0000000        2051.3378906        27.662109375    
 2683-66-40      2053.0000000        2032.7735596        20.226440430    
 2686-1-274      2157.0000000        2165.4936523       -8.4936523438    
 2686-6-283      2150.0000000        2161.4719238       -11.471923828    
 2686-10-280     2137.0000000        2152.4941406       -15.494140625    
 2666-1-274      2111.0000000        2158.9321289       -47.932128906    
 2666-6-283      2101.0000000        2154.3654785       -53.365478516    
 2670-17-3       2140.0000000        2156.3220215       -16.322021484    
 2670-22-31      2138.0000000        2151.9431152       -13.943115234    
 2670-31-351     2129.0000000        2143.1301270       -14.130126953    
 2670-36-50      2126.0000000        2135.5607910       -9.5607910156    
 2670-42-352     2116.0000000        2120.7377930       -4.7377929688    
 2670-56-24      2108.0000000        2086.4104004        21.589599609    
 2670-61-54      2091.0000000        2066.1105957        24.889404297    
 2670-66-33      2063.0000000        2047.2668457        15.733154297    
 2670-71-62      2070.0000000        2036.8424072        33.157592773    
 2703-36-244     2194.0000000        2186.8950195        7.1049804688    
 2703-48-355     2189.0000000        2168.6782227        20.321777344    
 2703-55-343     2184.0000000        2153.5444336        30.455566406    
 2703-61-35      2180.0000000        2140.1748047        39.825195312    
 2703-66-19      2178.0000000        2126.6713867        51.328613281    
 2703-71-323     2147.0000000        2103.7482910        43.251708984    
 2680-71-61      2159.0000000        2082.4184570        76.581542969    
 2704-42-335     2188.0000000        2155.8137207        32.186279297    
 2704-48-356     2184.0000000        2147.5080566        36.491943359    
 2672-42-356     2170.0000000        2149.0253906        20.974609375    
 2672-66-33      2154.0000000        2085.6206055        68.379394531    
 2672-71-63      2142.0000000        2072.4152832        69.584716797    
 2657-42-356     2158.0000000        2157.6135254       0.38647460938    
 2657-66-33      2152.0000000        2098.9218750        53.078125000    
 2685-42-356     2197.0000000        2166.1506348        30.849365234    
 2685-48-355     2193.0000000        2158.8840332        34.115966797    
 2685-55-343     2186.0000000        2139.8598633        46.140136719    
 2685-61-35      2183.0000000        2125.8344727        57.165527344    
 2685-66-26      2173.0000000        2110.6279297        62.372070312    
 2685-71-323     2154.0000000        2094.1789551        59.821044922    
 2983-16-361     2632.0000000        2578.1130371        53.886962891    
 2983-22-31      2610.0000000        2590.8364258        19.163574219    
 2983-27-11      2618.0000000        2602.0119629        15.988037109    
 2980-43-8       2567.0000000        2576.7014160       -9.7014160156    
 2980-48-334     2581.0000000        2572.3417969        8.6582031250    
 2980-56-24      2581.0000000        2563.9450684        17.054931641    
 2990-16-361     2525.0000000        2525.7976074      -0.79760742188    
 2990-48-337     2544.0000000        2547.0368652       -3.0368652344    
 2990-56-24      2562.0000000        2536.6232910        25.376708984    
 2956-2-85       2545.0000000        2504.3176270        40.682373047    
 2956-6-284      2530.0000000        2502.0979004        27.902099609    
 2956-12-261     2511.0000000        2502.8696289        8.1303710938    
 2956-16-133     2520.0000000        2504.5874023        15.412597656    
 2956-26-124     2513.0000000        2526.9055176       -13.905517578    
 2956-37-34      2520.0000000        2519.5839844       0.41601562500    
 2956-43-5       2537.0000000        2529.6086426        7.3913574219    
 2956-48-334     2551.0000000        2525.2019043        25.798095703    
 2956-56-27      2553.0000000        2515.4987793        37.501220703    
 2956-66-35      2495.0000000        2487.5002441        7.4997558594    
 2956-71-12      2500.0000000        2468.0529785        31.947021484    
 2956-71-365     2513.0000000        2464.3181152        48.681884766    
 2931-11-62      2429.0000000        2429.0876465      -8.76464843750E-02
 2931-16-361     2420.0000000        2431.0727539       -11.072753906    
 2931-22-31      2415.0000000        2437.8339844       -22.833984375    
 2635-56-25      1731.0000000        1752.5566406       -21.556640625    
 2595-16-355     1833.0000000        1843.0495605       -10.049560547    
 2595-48-349     1721.0000000        1750.0378418       -29.037841797    
 2595-55-355     1728.0000000        1760.8875732       -32.887573242    
 2595-61-4       1733.0000000        1764.2192383       -31.219238281    
 2595-66-47      1743.0000000        1767.4293213       -24.429321289    
 2595-71-5       1753.0000000        1771.3736572       -18.373657227    
 2595-71-365     1755.0000000        1774.5371094       -19.537109375    
 2594-48-350     1725.0000000        1752.2719727       -27.271972656    
 2594-55-355     1732.0000000        1763.3934326       -31.393432617    
 2594-66-47      1746.0000000        1769.3959961       -23.395996094    
 2594-71-5       1757.0000000        1773.3531494       -16.353149414    
 2594-71-365     1760.0000000        1776.4381104       -16.438110352    
 2599-66-47      1746.0000000        1768.0118408       -22.011840820    
 2599-71-5       1756.0000000        1771.7282715       -15.728271484    
 2599-71-365     1758.0000000        1774.6368408       -16.636840820    
 2596-42-351     1713.0000000        1727.6945801       -14.694580078    
 2596-48-349     1721.0000000        1749.6014404       -28.601440430    
 2596-55-355     1728.0000000        1759.7701416       -31.770141602    
 2596-61-4       1733.0000000        1762.5261230       -29.526123047    
 2596-66-34      1742.0000000        1766.2016602       -24.201660156    
 2596-71-5       1753.0000000        1769.9244385       -16.924438477    
 2596-71-365     1755.0000000        1773.0391846       -18.039184570    
 2591-56-3       1728.0000000        1759.0042725       -31.004272461    
 2591-61-4       1732.0000000        1761.9211426       -29.921142578    
 2591-66-34      1742.0000000        1765.8483887       -23.848388672    
 2591-71-5       1753.0000000        1769.6292725       -16.629272461    
 2591-71-365     1755.0000000        1772.7298584       -17.729858398    
 2588-42-351     1710.0000000        1728.1055908       -18.105590820    
 2588-48-349     1715.0000000        1746.7690430       -31.769042969    
 2588-55-355     1722.0000000        1757.5467529       -35.546752930    
 2588-61-4       1726.0000000        1760.6071777       -34.607177734    
 2588-66-47      1736.0000000        1764.7648926       -28.764892578    
 2588-71-4       1746.0000000        1768.2545166       -22.254516602    
 2588-71-365     1749.0000000        1770.7659912       -21.765991211    
 2564-12-171     1866.0000000        1875.4285889       -9.4285888672    
 2564-16-355     1833.0000000        1844.9960938       -11.996093750    
 2564-22-37      1807.0000000        1811.6885986       -4.6885986328    
 2530-42-351     1722.0000000        1735.4798584       -13.479858398    
 2530-48-349     1730.0000000        1755.5784912       -25.578491211    
 2530-55-355     1739.0000000        1767.7387695       -28.738769531    
 2530-61-6       1743.0000000        1772.3238525       -29.323852539    
 2530-66-47      1754.0000000        1775.2911377       -21.291137695    
 2530-71-5       1764.0000000        1777.9951172       -13.995117188    
 2530-71-365     1766.0000000        1780.8879395       -14.887939453    
 2529-17-6       1844.0000000        1855.1391602       -11.139160156    
 2529-56-24      1737.0000000        1771.4626465       -34.462646484    
 2529-61-52      1742.0000000        1776.3955078       -34.395507812    
 2529-66-19      1751.0000000        1778.7226562       -27.722656250    
 2587-1-105      1880.0000000        1881.5443115       -1.5443115234    
 2587-7-3        1880.0000000        1880.5166016      -0.51660156250    
 2449-32-85      1798.0000000        1796.8015137        1.1984863281    
 2492-48-349     1742.0000000        1777.3552246       -35.355224609    
 2492-61-4       1757.0000000        1792.1142578       -35.114257812    
 2492-66-39      1766.0000000        1789.4005127       -23.400512695    
 2492-71-6       1776.0000000        1790.2575684       -14.257568359    
 2492-71-365     1779.0000000        1793.3520508       -14.352050781    
 2491-56-3       1769.0000000        1787.4770508       -18.477050781    
 2491-61-6       1771.0000000        1791.7746582       -20.774658203    
 2491-66-39      1779.0000000        1788.8947754       -9.8947753906    
 2491-71-6       1788.0000000        1790.9719238       -2.9719238281    
 2491-71-365     1789.0000000        1794.0799561       -5.0799560547    
 2450-48-349     1771.0000000        1787.6071777       -16.607177734    
 2450-55-354     1777.0000000        1798.3409424       -21.340942383    
 2450-61-4       1779.0000000        1801.8142090       -22.814208984    
 2450-66-39      1785.0000000        1796.5823975       -11.582397461    
 2450-71-6       1795.0000000        1795.8054199      -0.80541992188    
 2450-71-365     1796.0000000        1798.5346680       -2.5346679688    
 2451-48-349     1763.0000000        1785.2988281       -22.298828125    
 2451-55-355     1771.0000000        1795.2756348       -24.275634766    
 2451-61-4       1774.0000000        1799.2049561       -25.204956055    
 2451-66-27      1778.0000000        1795.3170166       -17.317016602    
 2451-71-6       1788.0000000        1795.4376221       -7.4376220703    
 2451-71-365     1790.0000000        1798.5791016       -8.5791015625    
 2442-48-348     1728.0000000        1769.2546387       -41.254638672    
 2442-56-23      1738.0000000        1782.1021729       -44.102172852    
 2442-60-319     1740.0000000        1787.0991211       -47.099121094    
 2442-66-26      1748.0000000        1787.9171143       -39.917114258    
 2442-71-11      1762.0000000        1790.7406006       -28.740600586    
 2452-12-171     1883.0000000        1895.7490234       -12.749023438    
 2452-16-314     1834.0000000        1865.7232666       -31.723266602    
 2452-32-85      1756.0000000        1773.3265381       -17.326538086    
 2452-35-53      1745.0000000        1758.3480225       -13.348022461    
 2390-42-351     1719.0000000        1755.3806152       -36.380615234    
 2390-48-349     1727.0000000        1767.8801270       -40.880126953    
 2390-55-355     1736.0000000        1780.0708008       -44.070800781    
 2390-66-47      1751.0000000        1787.5950928       -36.595092773    
 2390-71-6       1762.0000000        1787.7746582       -25.774658203    
 2390-71-365     1764.0000000        1789.3758545       -25.375854492    
 2303-42-351     1724.0000000        1764.9851074       -40.985107422    
 2303-48-349     1730.0000000        1774.4862061       -44.486206055    
 2303-55-355     1738.0000000        1785.3682861       -47.368286133    
 2303-61-4       1743.0000000        1790.8403320       -47.840332031    
 2303-66-47      1752.0000000        1792.6700439       -40.670043945    
 2303-71-6       1763.0000000        1791.8868408       -28.886840820    
 2303-71-365     1765.0000000        1793.1713867       -28.171386719    
 2417-56-24      1738.0000000        1786.9047852       -48.904785156    
 2417-61-54      1743.0000000        1791.4337158       -48.433715820    
 2411-56-24      1738.0000000        1787.2095947       -49.209594727    
 2411-61-54      1743.0000000        1791.7196045       -48.719604492    
 2259-42-352     1727.0000000        1773.9287109       -46.928710938    
 2259-56-3       1745.0000000        1801.9730225       -56.973022461    
 2296-22-38      1830.0000000        1844.1191406       -14.119140625    
 2296-42-352     1741.0000000        1776.0347900       -35.034790039    
 2296-48-350     1751.0000000        1794.4980469       -43.498046875    
 2296-55-354     1759.0000000        1804.6604004       -45.660400391    
 2296-61-6       1764.0000000        1807.8677979       -43.867797852    
 2296-66-39      1772.0000000        1802.4617920       -30.461791992    
 2296-71-6       1781.0000000        1803.3863525       -22.386352539    
 2296-71-365     1782.0000000        1806.5484619       -24.548461914    
 2302-48-350     1777.0000000        1801.6669922       -24.666992188    
 2302-55-354     1777.0000000        1811.3101807       -34.310180664    
 2302-61-6       1789.0000000        1813.2734375       -24.273437500    
 2302-66-32      1790.0000000        1805.0755615       -15.075561523    
 2302-71-6       1799.0000000        1806.6317139       -7.6317138672    
 2302-71-365     1800.0000000        1810.1026611       -10.102661133    
 2301-37-33      1770.0000000        1783.4748535       -13.474853516    
 2301-42-352     1779.0000000        1789.6076660       -10.607666016    
 2301-48-349     1792.0000000        1806.2252197       -14.225219727    
 2301-55-354     1797.0000000        1815.9067383       -18.906738281    
 2301-66-1       1802.0000000        1807.7543945       -5.7543945312    
 2301-71-6       1809.0000000        1809.4219971      -0.42199707031    
 2301-71-365     1811.0000000        1813.0817871       -2.0817871094    
 2440-55-354     1790.0000000        1805.0001221       -15.000122070    
 2440-61-6       1793.0000000        1808.9620361       -15.962036133    
 2440-65-342     1796.0000000        1800.3925781       -4.3925781250    
 2440-71-6       1808.0000000        1803.4418945        4.5581054688    
 2440-71-365     1809.0000000        1806.9224854        2.0775146484    
 2300-16-354     1887.0000000        1881.7348633        5.2651367188    
 2300-48-350     1798.0000000        1814.2900391       -16.290039062    
 2300-55-355     1805.0000000        1823.7080078       -18.708007812    
 2300-61-6       1809.0000000        1825.0855713       -16.085571289    
 2300-65-341     1808.0000000        1811.9362793       -3.9362792969    
 2300-71-7       1820.0000000        1813.3979492        6.6020507812    
 2300-71-365     1820.0000000        1815.3658447        4.6341552734    
 2220-12-311     1928.0000000        1921.4185791        6.5814208984    
 2220-16-356     1891.0000000        1889.0744629        1.9255371094    
 2220-48-350     1810.0000000        1824.1728516       -14.172851562    
 2220-55-354     1812.0000000        1831.8480225       -19.848022461    
 2220-61-7       1815.0000000        1834.1243896       -19.124389648    
 2220-66-39      1812.0000000        1813.8262939       -1.8262939453    
 2220-71-7       1827.0000000        1822.8393555        4.1606445312    
 2220-71-365     1826.0000000        1827.2536621       -1.2536621094    
 2222-55-354     1806.0000000        1829.4346924       -23.434692383    
 2222-61-6       1815.0000000        1831.3026123       -16.302612305    
 2222-65-341     1809.0000000        1814.7335205       -5.7335205078    
 2222-71-7       1822.0000000        1821.1580811       0.84191894531    
 2222-71-365     1821.0000000        1825.4111328       -4.4111328125    
 2096-48-350     1816.0000000        1832.2791748       -16.279174805    
 2096-55-354     1818.0000000        1839.1796875       -21.179687500    
 2096-61-6       1824.0000000        1840.1630859       -16.163085938    
 2096-65-343     1814.0000000        1819.7714844       -5.7714843750    
 2096-71-7       1828.0000000        1828.3128662      -0.31286621094    
 2096-71-365     1827.0000000        1833.5303955       -6.5303955078    
 2089-12-171     1917.0000000        1925.8162842       -8.8162841797    
 2089-42-352     1788.0000000        1807.6160889       -19.616088867    
 2089-48-350     1796.0000000        1820.5100098       -24.510009766    
 2089-55-354     1801.0000000        1828.8984375       -27.898437500    
 2089-61-6       1803.0000000        1829.7623291       -26.762329102    
 2089-66-55      1803.0000000        1817.0942383       -14.094238281    
 2089-71-6       1809.0000000        1821.2692871       -12.269287109    
 2089-71-365     1810.0000000        1825.5272217       -15.527221680    
 2088-42-352     1799.0000000        1812.8831787       -13.883178711    
 2088-48-350     1807.0000000        1825.5075684       -18.507568359    
 2088-55-354     1811.0000000        1833.8417969       -22.841796875    
 2088-61-6       1813.0000000        1834.0944824       -21.094482422    
 2088-66-48      1811.0000000        1818.3818359       -7.3818359375    
 2088-71-6       1818.0000000        1824.8543701       -6.8543701172    
 2088-71-365     1819.0000000        1829.3201904       -10.320190430    
 2620-61-53      1751.0000000        1773.3311768       -22.331176758    
 2620-66-28      1754.0000000        1769.9764404       -15.976440430    
 2630-1-86       1889.0000000        1883.7305908        5.2694091797    
 2615-21-353     1856.0000000        1851.5549316        4.4450683594    
 2615-27-20      1833.0000000        1825.8967285        7.1032714844    
 2615-36-64      1802.0000000        1785.8079834        16.192016602    
 2615-42-350     1766.0000000        1767.2713623       -1.2713623047    
 2618-56-23      1750.0000000        1767.1031494       -17.103149414    
 2618-61-53      1751.0000000        1771.8554688       -20.855468750    
 2618-66-28      1753.0000000        1774.7491455       -21.749145508    
 2616-1-109      1890.0000000        1889.9487305       5.12695312500E-02
 2616-7-10       1889.0000000        1892.3381348       -3.3381347656    
 2616-10-319     1878.0000000        1891.2935791       -13.293579102    
 2607-56-23      1754.0000000        1776.6528320       -22.652832031    
 2607-61-53      1751.0000000        1780.9991455       -29.999145508    
 2607-66-28      1752.0000000        1780.6651611       -28.665161133    
 2578-2-305      1903.0000000        1892.2772217        10.722778320    
 2582-1-105      1898.0000000        1895.2117920        2.7882080078    
 2577-56-23      1757.0000000        1783.9552002       -26.955200195    
 2577-61-53      1758.0000000        1788.5333252       -30.533325195    
 2577-66-28      1760.0000000        1786.0925293       -26.092529297    
 2573-56-27      1759.0000000        1785.6302490       -26.630249023    
 2553-33-188     1780.0000000        1783.4224854       -3.4224853516    
 2553-56-27      1769.0000000        1787.6450195       -18.645019531    
 2574-1-107      1894.0000000        1898.1916504       -4.1916503906    
 2580-1-109      1894.0000000        1900.5207520       -6.5207519531    
 2571-21-354     1857.0000000        1861.3189697       -4.3189697266    
 2498-37-34      1812.0000000        1792.4106445        19.589355469    
 2498-42-350     1797.0000000        1785.1042480        11.895751953    
 2519-56-23      1776.0000000        1798.9056396       -22.905639648    
 2507-48-300     1781.0000000        1788.5570068       -7.5570068359    
 2507-55-318     1786.0000000        1798.8237305       -12.823730469    
 2507-60-313     1786.0000000        1803.2595215       -17.259521484    
 2507-65-364     1792.0000000        1797.1900635       -5.1900634766    
 2507-71-350     1807.0000000        1804.6052246        2.3947753906    
 2508-48-300     1780.0000000        1788.5570068       -8.5570068359    
 2508-55-318     1782.0000000        1798.8237305       -16.823730469    
 2508-60-313     1782.0000000        1803.2595215       -21.259521484    
 2508-65-364     1788.0000000        1797.1900635       -9.1900634766    
 2508-71-350     1808.0000000        1804.6052246        3.3947753906    
 2448-56-25      1795.0000000        1809.1297607       -14.129760742    
 2448-61-52      1799.0000000        1814.6776123       -15.677612305    
 2448-66-20      1803.0000000        1806.5356445       -3.5356445312    
 2311-56-23      1817.0000000        1830.1376953       -13.137695312    
 2311-61-53      1822.0000000        1835.4156494       -13.415649414    
 2311-66-28      1823.0000000        1818.4212646        4.5787353516    
 2084-2-305      1948.0000000        1948.1009521      -0.10095214844    
 2099-42-352     1819.0000000        1827.1771240       -8.1771240234    
 2099-48-365     1824.0000000        1838.5194092       -14.519409180    
 2099-55-354     1826.0000000        1843.2900391       -17.290039062    
 2099-61-7       1837.0000000        1845.4305420       -8.4305419922    
 2099-65-344     1824.0000000        1816.1173096        7.8826904297    
 2099-71-365     1840.0000000        1827.0268555        12.973144531    
 2087-71-365     1825.0000000        1813.7119141        11.288085938    
 2110-71-365     1844.0000000        1837.9641113        6.0358886719    
 2040-65-364     1850.0000000        1798.4752197        51.524780273    
 2040-71-365     1864.0000000        1814.5421143        49.457885742    
 2034-65-364     1830.0000000        1824.3112793        5.6887207031    
 2034-71-12      1876.0000000        1848.0328369        27.967163086    
 2034-71-365     1838.0000000        1851.9694824       -13.969482422    
 2009-71-8       1870.0000000        1848.9178467        21.082153320    
 2009-71-365     1858.0000000        1854.4185791        3.5814208984    
 2008-71-8       1845.0000000        1842.7349854        2.2650146484    
 2008-71-365     1838.0000000        1847.8087158       -9.8087158203    
 1923-16-315     1894.0000000        1921.8123779       -27.812377930    
 1923-22-38      1884.0000000        1892.1058350       -8.1058349609    
 1923-27-24      1863.0000000        1868.5833740       -5.5833740234    
 1923-32-85      1840.0000000        1849.6973877       -9.6973876953    
 1923-36-1       1840.0000000        1840.2675781      -0.26757812500    
 1923-42-352     1841.0000000        1847.9608154       -6.9608154297    
 1923-48-348     1841.0000000        1855.3813477       -14.381347656    
 1923-55-354     1840.0000000        1860.3150635       -20.315063477    
 1923-60-323     1856.0000000        1861.8870850       -5.8870849609    
 1923-65-343     1828.0000000        1829.2491455       -1.2491455078    
 1923-71-8       1848.0000000        1855.1939697       -7.1939697266    
 1923-71-365     1844.0000000        1853.7210693       -9.7210693359    
 1914-55-354     1840.0000000        1862.5407715       -22.540771484    
 1914-61-7       1855.0000000        1862.6488037       -7.6488037109    
 1914-71-8       1848.0000000        1857.4616699       -9.4616699219    
 1919-71-8       1853.0000000        1853.6987305      -0.69873046875    
 1914-71-365     1844.0000000        1843.6044922       0.39550781250    
 1919-71-365     1847.0000000        1859.4476318       -12.447631836    
 1938-65-364     1848.0000000        1825.9833984        22.016601562    
 1960-65-364     1842.0000000        1822.8039551        19.196044922    
 1922-12-171     1950.0000000        1954.6752930       -4.6752929688    
 1922-42-352     1846.0000000        1852.0250244       -6.0250244141    
 1922-48-349     1847.0000000        1858.9515381       -11.951538086    
 1922-55-354     1846.0000000        1863.3294678       -17.329467773    
 1922-61-7       1873.0000000        1867.2976074        5.7023925781    
 1922-71-8       1884.0000000        1864.5432129        19.456787109    
 1922-71-365     1872.0000000        1848.4882812        23.511718750    
 1918-10-108     1955.0000000        1957.0421143       -2.0421142578    
 1918-66-32      1850.0000000        1830.0764160        19.923583984    
 1918-71-8       1881.0000000        1873.0771484        7.9228515625    
 1918-71-365     1866.0000000        1850.8784180        15.121582031    
 1959-71-8       1888.0000000        1861.3116455        26.688354492    
 1959-71-365     1873.0000000        1867.6401367        5.3598632812    
 1944-71-365     1882.0000000        1865.8979492        16.102050781    
 1988-35-4       1872.0000000        1864.4207764        7.5792236328    
 1908-56-18      1862.0000000        1881.7274170       -19.727416992    
 1908-66-18      1848.0000000        1870.7062988       -22.706298828    
 2638-33-46      2108.0000000        2105.3391113        2.6608886719    
 2648-35-95      2092.0000000        2094.9677734       -2.9677734375    
 2627-48-336     2088.0000000        2078.3205566        9.6794433594    
 2619-2-1        2145.0000000        2156.0725098       -11.072509766    
 2642-12-43      2100.0000000        2116.4499512       -16.449951172    
 2649-17-23      2099.0000000        2113.7229004       -14.722900391    
 2649-22-20      2098.0000000        2107.5905762       -9.5905761719    
 2649-42-363     2087.0000000        2074.0520020        12.947998047    
 2649-48-336     2084.0000000        2064.3815918        19.618408203    
 2649-56-20      2111.0000000        2047.6129150        63.387084961    
 2649-61-55      2081.0000000        2030.8245850        50.175415039    
 2628-1-365      2129.0000000        2132.0639648       -3.0639648438    
 2650-71-350     2071.0000000        2001.4335938        69.566406250    
 2655-42-362     2084.0000000        2066.7836914        17.216308594    
 2655-48-362     2083.0000000        2057.6569824        25.343017578    
 2655-55-343     2093.0000000        2042.5993652        50.400634766    
 2655-61-40      2080.0000000        2025.8148193        54.185180664    
 2655-66-55      2057.0000000        2007.9968262        49.003173828    
 2655-71-350     2061.0000000        2001.1729736        59.827026367    
 2604-61-55      2078.0000000        2043.1772461        34.822753906    
 2626-22-20      2106.0000000        2117.0024414       -11.002441406    
 2626-32-42      2110.0000000        2106.9494629        3.0505371094    
 2623-8-279      2109.0000000        2127.9968262       -18.996826172    
 2623-12-32      2110.0000000        2125.5380859       -15.538085938    
 2623-17-22      2109.0000000        2121.6652832       -12.665283203    
 2623-22-1       2104.0000000        2115.8354492       -11.835449219    
 2623-27-34      2113.0000000        2109.9025879        3.0974121094    
 2608-12-43      2113.0000000        2132.0825195       -19.082519531    
 2608-17-23      2111.0000000        2127.2763672       -16.276367188    
 2608-22-20      2105.0000000        2121.8598633       -16.859863281    
 2608-32-42      2110.0000000        2112.6396484       -2.6396484375    
 2629-3-217      2124.0000000        2116.0732422        7.9267578125    
 2606-56-26      2123.0000000        2055.5866699        67.413330078    
 2606-61-55      2120.0000000        2038.5189209        81.481079102    
 2606-66-20      2114.0000000        2023.7862549        90.213745117    
 2592-12-43      2137.0000000        2152.1152344       -15.115234375    
 2592-17-23      2133.0000000        2146.2487793       -13.248779297    
 2592-22-23      2125.0000000        2139.2983398       -14.298339844    
 2592-42-364     2123.0000000        2108.1086426        14.891357422    
 2592-48-336     2115.0000000        2097.3754883        17.624511719    
 2592-56-20      2137.0000000        2078.6455078        58.354492188    
 2592-61-55      2113.0000000        2060.4953613        52.504638672    
 2603-27-15      2121.0000000        2129.7834473       -8.7834472656    
 2603-42-362     2104.0000000        2103.8911133       0.10888671875    
 2603-48-336     2101.0000000        2093.1503906        7.8496093750    
 2603-55-343     2114.0000000        2075.2431641        38.756835938    
 2603-61-40      2099.0000000        2056.3989258        42.601074219    
 2603-65-343     2064.0000000        2037.9296875        26.070312500    
 2603-71-47      2078.0000000        2029.0704346        48.929565430    
 2603-71-350     2074.0000000        2027.9582520        46.041748047    
 2593-1-365      2142.0000000        2157.8059082       -15.805908203    
 2558-22-23      2120.0000000        2142.7290039       -22.729003906    
 2558-27-35      2127.0000000        2137.6540527       -10.654052734    
 2558-42-362     2113.0000000        2112.4316406       0.56835937500    
 2558-48-362     2109.0000000        2102.4865723        6.5134277344    
 2558-55-343     2119.0000000        2084.9543457        34.045654297    
 2558-61-40      2106.0000000        2066.6655273        39.334472656    
 2651-42-356     2169.0000000        2166.1831055        2.8168945312    
 2632-66-33      2145.0000000        2115.5671387        29.432861328    
 2632-71-63      2134.0000000        2102.6220703        31.377929688    
 2644-48-345     2173.0000000        2154.9323730        18.067626953    
 2644-71-63      2134.0000000        2094.8615723        39.138427734    
 2645-42-356     2172.0000000        2149.1367188        22.863281250    
 2645-48-345     2158.0000000        2141.2189941        16.781005859    
 2645-66-33      2144.0000000        2087.4406738        56.559326172    
 2645-71-63      2131.0000000        2074.9169922        56.083007812    
 2624-71-63      2130.0000000        2083.5527344        46.447265625    
 2609-42-365     2143.0000000        2149.1213379       -6.1213378906    
 2609-48-338     2138.0000000        2140.6845703       -2.6845703125    
 2609-56-24      2128.0000000        2120.4323730        7.5676269531    
 2609-61-54      2121.0000000        2105.1137695        15.886230469    
 2609-66-26      2103.0000000        2087.9479980        15.052001953    
 2609-71-62      2095.0000000        2076.0549316        18.945068359    
 2631-56-24      2101.0000000        2079.0026855        21.997314453    
 2631-61-54      2085.0000000        2060.5651855        24.434814453    
 2631-66-33      2058.0000000        2040.5939941        17.406005859    
 2652-17-24      2121.0000000        2145.2832031       -24.283203125    
 2652-22-19      2113.0000000        2139.2541504       -26.254150391    
 2652-27-33      2114.0000000        2132.8576660       -18.857666016    
 2652-42-362     2099.0000000        2108.8002930       -9.8002929688    
 2634-66-19      2059.0000000        2031.4920654        27.507934570    
 2633-56-23      2109.0000000        2071.2434082        37.756591797    
 2647-1-51       2132.0000000        2151.3161621       -19.316162109    
 2613-56-26      2121.0000000        2079.9235840        41.076416016    
 2622-11-34      2132.0000000        2159.0454102       -27.045410156    
 2622-17-3       2120.0000000        2151.8105469       -31.810546875    
 2622-22-25      2119.0000000        2146.0209961       -27.020996094    
 2622-27-11      2120.0000000        2139.9270020       -19.927001953    
 2622-32-46      2113.0000000        2137.5358887       -24.535888672    
 2625-42-362     2107.0000000        2114.3471680       -7.3471679688    
 2605-42-362     2114.0000000        2118.5458984       -4.5458984375    
 2605-48-362     2110.0000000        2107.0971680        2.9028320312    
 2605-55-343     2118.0000000        2086.9128418        31.087158203    
 2605-61-38      2104.0000000        2068.0537109        35.946289062    
 2605-66-49      2073.0000000        2048.3803711        24.619628906    
 2605-71-40      2077.0000000        2040.2485352        36.751464844    
 2605-71-350     2076.0000000        2038.9774170        37.022583008    
 2570-8-37       2157.0000000        2168.5996094       -11.599609375    
 2570-12-46      2145.0000000        2162.7829590       -17.782958984    
 2570-17-24      2139.0000000        2155.3430176       -16.343017578    
 2570-22-25      2125.0000000        2149.3205566       -24.320556641    
 2560-22-25      2127.0000000        2151.9243164       -24.924316406    
 2560-27-34      2126.0000000        2148.2329102       -22.232910156    
 2560-32-36      2126.0000000        2144.9028320       -18.902832031    
 2560-42-363     2116.0000000        2120.9667969       -4.9667968750    
 2545-56-20      2135.0000000        2098.3706055        36.629394531    
 2544-1-50       2178.0000000        2190.2902832       -12.290283203    
 2544-6-39       2167.0000000        2186.7851562       -19.785156250    
 2576-16-25      2150.0000000        2171.8620605       -21.862060547    
 2576-22-25      2142.0000000        2169.6198730       -27.619873047    
 2576-26-28      2140.0000000        2163.9619141       -23.961914062    
 2581-66-26      2077.0000000        2067.9182129        9.0817871094    
 2581-71-62      2076.0000000        2057.4941406        18.505859375    
 2600-17-24      2133.0000000        2163.9240723       -30.924072266    
 2600-22-25      2127.0000000        2159.2490234       -32.249023438    
 2600-27-54      2129.0000000        2154.3713379       -25.371337891    
 2600-32-36      2120.0000000        2151.4929199       -31.492919922    
 2600-38-32      2112.0000000        2136.2053223       -24.205322266    
 2600-39-32      2112.0000000        2134.2326660       -22.232666016    
 2600-48-362     2111.0000000        2115.3352051       -4.3352050781    
 2600-55-343     2114.0000000        2095.8669434        18.133056641    
 2600-61-40      2102.0000000        2078.5170898        23.482910156    
 2600-66-49      2085.0000000        2058.4006348        26.599365234    
 2600-71-40      2075.0000000        2048.9140625        26.085937500    
 2600-71-350     2092.0000000        2047.4379883        44.562011719    
 2566-66-26      2067.0000000        2064.0349121        2.9650878906    
 2562-48-335     2109.0000000        2118.8688965       -9.8688964844    
 2562-56-25      2124.0000000        2099.4458008        24.554199219    
 2543-1-2        2177.0000000        2193.3017578       -16.301757812    
 2546-7-316      2175.0000000        2193.9304199       -18.930419922    
 2546-12-46      2162.0000000        2185.8659668       -23.865966797    
 2546-17-33      2154.0000000        2176.9492188       -22.949218750    
 2546-22-25      2145.0000000        2170.8908691       -25.890869141    
 2546-27-11      2162.0000000        2168.6943359       -6.6943359375    
 2546-32-46      2144.0000000        2164.2463379       -20.246337891    
 2546-38-46      2137.0000000        2147.8144531       -10.814453125    
 2546-39-32      2139.0000000        2146.2441406       -7.2441406250    
 2546-56-25      2163.0000000        2109.9067383        53.093261719    
 2541-17-3       2147.0000000        2176.3730469       -29.373046875    
 2541-27-11      2163.0000000        2167.8054199       -4.8054199219    
 2548-42-362     2126.0000000        2134.7697754       -8.7697753906    
 2548-48-362     2120.0000000        2124.7446289       -4.7446289062    
 2548-55-347     2124.0000000        2106.1315918        17.868408203    
 2548-60-362     2111.0000000        2090.6718750        20.328125000    
 2547-66-48      2087.0000000        2073.7678223        13.232177734    
 2547-71-12      2084.0000000        2062.4282227        21.571777344    
 2547-71-350     2082.0000000        2062.1323242        19.867675781    
 2551-42-352     2126.0000000        2138.6413574       -12.641357422    
 2551-56-24      2127.0000000        2109.8908691        17.109130859    
 2551-66-26      2085.0000000        2075.5583496        9.4416503906    
 2550-42-362     2130.0000000        2143.5578613       -13.557861328    
 2550-56-24      2122.0000000        2115.5886230        6.4113769531    
 2550-61-54      2107.0000000        2101.0729980        5.9270019531    
 2550-66-26      2085.0000000        2081.6811523        3.3188476562    
 2542-22-25      2156.0000000        2181.4401855       -25.440185547    
 2542-27-54      2165.0000000        2178.4213867       -13.421386719    
 2542-66-26      2089.0000000        2083.8574219        5.1425781250    
 2552-56-24      2120.0000000        2120.4433594      -0.44335937500    
 2552-61-54      2109.0000000        2105.8269043        3.1730957031    
 2552-66-33      2092.0000000        2086.9045410        5.0954589844    
 2552-71-62      2083.0000000        2076.3696289        6.6303710938    
 2598-1-274      2210.0000000        2211.4006348       -1.4006347656    
 2598-6-284      2205.0000000        2208.6008301       -3.6008300781    
 2598-11-62      2197.0000000        2201.7355957       -4.7355957031    
 2584-12-325     2205.0000000        2207.9257812       -2.9257812500    
 2584-17-3       2190.0000000        2199.0500488       -9.0500488281    
 2584-22-31      2181.0000000        2192.8728027       -11.872802734    
 2584-27-11      2173.0000000        2186.6484375       -13.648437500    
 2540-48-357     2153.0000000        2164.1018066       -11.101806641    
 2540-55-343     2142.0000000        2149.2358398       -7.2358398438    
 2540-61-38      2135.0000000        2136.0004883       -1.0004882812    
 2540-66-59      2125.0000000        2117.4372559        7.5627441406    
 2540-71-40      2122.0000000        2109.6491699        12.350830078    
 2540-71-365     2122.0000000        2108.7402344        13.259765625    
 2597-42-335     2153.0000000        2196.4948730       -43.494873047    
 2597-48-357     2151.0000000        2186.9001465       -35.900146484    
 2597-55-343     2141.0000000        2171.8874512       -30.887451172    
 2597-61-38      2136.0000000        2160.3686523       -24.368652344    
 2597-66-59      2129.0000000        2148.8833008       -19.883300781    
 2597-71-40      2121.0000000        2136.5495605       -15.549560547    
 2597-71-365     2119.0000000        2134.6760254       -15.676025391    
 2565-48-342     2155.0000000        2193.9816895       -38.981689453    
 2575-55-343     2203.0000000        2165.6008301        37.399169922    
 2539-11-34      2244.0000000        2244.1140137      -0.11401367188    
 2539-22-79      2212.0000000        2225.7797852       -13.779785156    
 2539-32-46      2200.0000000        2210.2980957       -10.298095703    
 2539-37-34      2187.0000000        2195.6020508       -8.6020507812    
 2539-48-337     2174.0000000        2174.7756348      -0.77563476562    
 2539-60-321     2158.0000000        2149.4802246        8.5197753906    
 2539-65-299     2144.0000000        2131.3352051        12.664794922    
 2539-71-13      2144.0000000        2121.8815918        22.118408203    
 2539-71-365     2143.0000000        2120.5063477        22.493652344    
 2478-61-31      2169.0000000        2160.3237305        8.6762695312    
 2478-66-1       2150.0000000        2140.2707520        9.7292480469    
 2478-71-41      2148.0000000        2135.3928223        12.607177734    
 2478-71-365     2152.0000000        2137.7478027        14.252197266    
 2474-16-298     2273.0000000        2260.0312500        12.968750000    
 2474-22-32      2270.0000000        2253.7070312        16.292968750    
 2474-27-10      2263.0000000        2246.3100586        16.689941406    
 2531-42-362     2157.0000000        2170.4526367       -13.452636719    
 2531-48-357     2153.0000000        2162.3232422       -9.3232421875    
 2531-55-343     2141.0000000        2147.4565430       -6.4565429688    
 2531-61-38      2134.0000000        2134.0046387      -4.63867187500E-03
 2531-66-59      2123.0000000        2115.2824707        7.7175292969    
 2531-71-40      2121.0000000        2108.0634766        12.936523438    
 2531-71-365     2121.0000000        2107.4003906        13.599609375    
 2504-71-63      2155.0000000        2115.8828125        39.117187500    
 2520-71-62      2132.0000000        2103.8750000        28.125000000    
 2482-42-362     2162.0000000        2172.5893555       -10.589355469    
 2482-48-362     2150.0000000        2164.1027832       -14.102783203    
 2482-55-343     2143.0000000        2151.1591797       -8.1591796875    
 2482-61-40      2132.0000000        2137.2241211       -5.2241210938    
 2482-66-45      2121.0000000        2118.2795410        2.7204589844    
 2482-71-26      2126.0000000        2113.4714355        12.528564453    
 2482-71-365     2127.0000000        2114.6215820        12.378417969    
 2470-55-343     2152.0000000        2157.6437988       -5.6437988281    
 2470-66-45      2131.0000000        2124.7636719        6.2363281250    
 2470-71-41      2133.0000000        2120.7170410        12.282958984    
 2470-71-365     2136.0000000        2122.7148438        13.285156250    
 2473-55-343     2154.0000000        2157.6437988       -3.6437988281    
 2476-48-362     2155.0000000        2169.7041016       -14.704101562    
 2476-55-343     2151.0000000        2158.4321289       -7.4321289062    
 2476-61-32      2143.0000000        2144.8107910       -1.8107910156    
 2476-66-45      2142.0000000        2125.4980469        16.501953125    
 2476-71-41      2132.0000000        2121.5615234        10.438476562    
 2476-71-365     2135.0000000        2123.5751953        11.424804688    
 2523-37-1       2161.0000000        2174.3208008       -13.320800781    
 2512-71-62      2101.0000000        2096.7102051        4.2897949219    
 2513-17-24      2182.0000000        2202.7695312       -20.769531250    
 2513-22-25      2173.0000000        2195.7673340       -22.767333984    
 2513-26-362     2168.0000000        2192.5810547       -24.581054688    
 2487-42-355     2146.0000000        2161.7658691       -15.765869141    
 2467-12-46      2194.0000000        2219.7114258       -25.711425781    
 2467-17-3       2183.0000000        2209.6469727       -26.646972656    
 2467-22-25      2173.0000000        2201.0383301       -28.038330078    
 2467-27-54      2176.0000000        2197.9387207       -21.938720703    
 2467-32-46      2155.0000000        2189.6049805       -34.604980469    
 2467-38-32      2148.0000000        2173.5393066       -25.539306641    
 2466-2-128      2235.0000000        2237.1821289       -2.1821289062    
 2496-42-335     2150.0000000        2166.1757812       -16.175781250    
 2496-48-362     2143.0000000        2157.8210449       -14.821044922    
 2496-55-343     2132.0000000        2142.6804199       -10.680419922    
 2496-61-32      2123.0000000        2128.1801758       -5.1801757812    
 2496-66-45      2109.0000000        2109.5778809      -0.57788085938    
 2496-71-40      2113.0000000        2103.6105957        9.3894042969    
 2496-71-365     2113.0000000        2103.5676270        9.4323730469    
 2486-42-362     2150.0000000        2166.4062500       -16.406250000    
 2486-48-362     2143.0000000        2158.1269531       -15.126953125    
 2486-55-343     2133.0000000        2143.0119629       -10.011962891    
 2486-60-344     2117.0000000        2128.6176758       -11.617675781    
 2486-66-45      2110.0000000        2109.9941406       5.85937500000E-03
 2486-71-26      2111.0000000        2104.4340820        6.5659179688    
 2486-71-365     2115.0000000        2104.6408691        10.359130859    
 2499-33-95      2163.0000000        2187.3237305       -24.323730469    
 2493-66-33      2109.0000000        2105.9921875        3.0078125000    
 2490-66-45      2105.0000000        2104.9223633       7.76367187500E-02
 2490-71-26      2099.0000000        2097.9479980        1.0520019531    
 2490-71-365     2101.0000000        2097.7578125        3.2421875000    
 2538-17-24      2177.0000000        2194.2968750       -17.296875000    
 2538-22-25      2168.0000000        2188.3471680       -20.347167969    
 2538-27-47      2170.0000000        2185.0417480       -15.041748047    
 2538-32-46      2157.0000000        2178.9924316       -21.992431641    
 2538-37-34      2146.0000000        2164.4602051       -18.460205078    
 2538-42-363     2138.0000000        2151.5173340       -13.517333984    
 2538-48-338     2134.0000000        2143.9890137       -9.9890136719    
 2538-56-24      2127.0000000        2125.1293945        1.8706054688    
 2538-60-321     2116.0000000        2111.7961426        4.2038574219    
 2534-56-24      2132.0000000        2124.1794434        7.8205566406    
 2534-66-19      2100.0000000        2091.0371094        8.9628906250    
 2532-56-24      2125.0000000        2121.2761230        3.7238769531    
 2500-71-62      2105.0000000        2087.4050293        17.594970703    
 2517-48-362     2129.0000000        2139.5554199       -10.555419922    
 2517-55-343     2127.0000000        2120.8984375        6.1015625000    
 2517-61-32      2115.0000000        2106.3007812        8.6992187500    
 2517-66-40      2094.0000000        2086.7241211        7.2758789062    
 2517-71-350     2088.0000000        2076.4858398        11.514160156    
 2514-17-3       2169.0000000        2192.7253418       -23.725341797    
 2475-22-25      2153.0000000        2188.1403809       -35.140380859    
 2475-27-11      2143.0000000        2185.1950684       -42.195068359    
 2475-43-32      2135.0000000        2152.3500977       -17.350097656    
 2475-48-362     2133.0000000        2144.6337891       -11.633789062    
 2475-55-347     2130.0000000        2126.8559570        3.1440429688    
 2475-60-362     2121.0000000        2112.1999512        8.8000488281    
 2475-66-1       2097.0000000        2093.4091797        3.5908203125    
 2475-71-350     2090.0000000        2081.4777832        8.5222167969    
 2480-22-25      2178.0000000        2196.4462891       -18.446289062    
 2480-42-362     2140.0000000        2158.4809570       -18.480957031    
 2480-48-362     2136.0000000        2151.2570801       -15.257080078    
 2480-56-5       2140.0000000        2133.9392090        6.0607910156    
 2480-61-5       2134.0000000        2119.6013184        14.398681641    
 2480-66-40      2106.0000000        2100.7363281        5.2636718750    
 2480-71-26      2096.0000000        2092.2978516        3.7021484375    
 2480-71-350     2098.0000000        2092.0537109        5.9462890625    
 2471-17-3       2179.0000000        2204.8210449       -25.821044922    
 2471-27-11      2163.0000000        2193.2395020       -30.239501953    
 2536-48-362     2124.0000000        2133.9353027       -9.9353027344    
 2536-55-347     2125.0000000        2115.1706543        9.8293457031    
 2536-60-362     2113.0000000        2100.5874023        12.412597656    
 2536-66-40      2091.0000000        2080.9372559        10.062744141    
 2536-71-350     2085.0000000        2069.8137207        15.186279297    
 2528-42-362     2129.0000000        2138.8393555       -9.8393554688    
 2528-48-362     2123.0000000        2129.5998535       -6.5998535156    
 2528-55-347     2126.0000000        2111.4484863        14.551513672    
 2528-60-362     2113.0000000        2096.2263184        16.773681641    
 2528-66-48      2088.0000000        2076.8366699        11.163330078    
 2528-71-350     2082.0000000        2064.7065430        17.293457031    
 2509-17-3       2148.0000000        2187.2697754       -39.269775391    
 2509-31-351     2138.0000000        2173.5666504       -35.566650391    
 2521-42-363     2132.0000000        2139.1865234       -7.1865234375    
 2521-48-335     2126.0000000        2130.1477051       -4.1477050781    
 2521-56-25      2133.0000000        2111.4584961        21.541503906    
 2521-61-56      2117.0000000        2096.4511719        20.548828125    
 2505-56-25      2133.0000000        2114.9487305        18.051269531    
 2506-48-335     2129.0000000        2133.5527344       -4.5527343750    
 2506-56-25      2133.0000000        2114.8732910        18.126708984    
 2506-61-56      2082.0000000        2100.1157227       -18.115722656    
 2506-66-18      2092.0000000        2081.0068359        10.993164062    
 2506-71-11      2089.0000000        2069.2006836        19.799316406    
 2506-71-365     2089.0000000        2068.2177734        20.782226562    
 2488-1-357      2201.0000000        2212.9868164       -11.986816406    
 2488-7-316      2188.0000000        2208.3952637       -20.395263672    
 2488-10-283     2174.0000000        2201.1191406       -27.119140625    
 2488-17-33      2162.0000000        2190.2253418       -28.225341797    
 2488-22-25      2152.0000000        2183.0317383       -31.031738281    
 2488-27-47      2156.0000000        2181.0217285       -25.021728516    
 2488-37-27      2136.0000000        2160.9113770       -24.911376953    
 2472-1-357      2208.0000000        2215.2722168       -7.2722167969    
 2472-8-36       2189.0000000        2211.2309570       -22.230957031    
 2472-12-50      2174.0000000        2203.6484375       -29.648437500    
 2472-17-33      2162.0000000        2193.4902344       -31.490234375    
 2537-22-25      2136.0000000        2160.9531250       -24.953125000    
 2537-27-47      2145.0000000        2158.1552734       -13.155273438    
 2537-32-46      2140.0000000        2154.7934570       -14.793457031    
 2537-37-34      2138.0000000        2141.2355957       -3.2355957031    
 2537-42-363     2125.0000000        2129.8454590       -4.8454589844    
 2537-56-20      2135.0000000        2101.5444336        33.455566406    
 2497-42-363     2131.0000000        2136.5048828       -5.5048828125    
 2497-48-337     2126.0000000        2127.5373535       -1.5373535156    
 2497-56-20      2135.0000000        2109.2641602        25.735839844    
 2434-48-362     2131.0000000        2141.1447754       -10.144775391    
 2434-55-346     2132.0000000        2123.2795410        8.7204589844    
 2434-61-6       2124.0000000        2107.8427734        16.157226562    
 2434-66-48      2095.0000000        2089.3522949        5.6477050781    
 2434-71-12      2089.0000000        2077.5256348        11.474365234    
 2434-71-350     2088.0000000        2075.3686523        12.631347656    
 2355-42-362     2138.0000000        2156.9895020       -18.989501953    
 2355-48-362     2135.0000000        2148.1105957       -13.110595703    
 2355-55-343     2134.0000000        2128.8676758        5.1323242188    
 2355-61-40      2122.0000000        2112.7929688        9.2070312500    
 2355-71-47      2094.0000000        2085.7280273        8.2719726562    
 2355-71-350     2092.0000000        2082.9157715        9.0842285156    
 2428-56-38      2135.0000000        2128.2700195        6.7299804688    
 2428-66-48      2102.0000000        2096.6059570        5.3940429688    
 2428-71-5       2091.0000000        2083.0725098        7.9274902344    
 2428-71-365     2091.0000000        2082.8352051        8.1647949219    
 2433-66-48      2099.0000000        2092.9233398        6.0766601562    
 2433-71-5       2091.0000000        2077.6738281        13.326171875    
 2433-71-365     2087.0000000        2077.2458496        9.7541503906    
 2403-48-362     2122.0000000        2145.6245117       -23.624511719    
 2403-55-343     2126.0000000        2128.0576172       -2.0576171875    
 2403-66-59      2098.0000000        2094.6618652        3.3381347656    
 2403-71-47      2091.0000000        2078.3740234        12.625976562    
 2403-71-365     2090.0000000        2077.7468262        12.253173828    
 2410-66-59      2100.0000000        2096.1743164        3.8256835938    
 2410-71-47      2091.0000000        2080.4426270        10.557373047    
 2410-71-365     2090.0000000        2079.9345703        10.065429688    
 2462-8-38       2184.0000000        2206.4760742       -22.476074219    
 2464-12-50      2168.0000000        2198.8347168       -30.834716797    
 2464-17-23      2159.0000000        2189.1701660       -30.170166016    
 2464-22-23      2149.0000000        2181.3630371       -32.363037109    
 2459-42-362     2136.0000000        2149.6967773       -13.696777344    
 2459-48-362     2131.0000000        2140.6945801       -9.6945800781    
 2409-66-48      2103.0000000        2097.1059570        5.8940429688    
 2409-71-12      2092.0000000        2081.3950195        10.604980469    
 2357-12-50      2196.0000000        2218.5249023       -22.524902344    
 2357-17-35      2180.0000000        2207.9248047       -27.924804688    
 2357-22-23      2170.0000000        2198.9580078       -28.958007812    
 2357-27-34      2169.0000000        2195.1298828       -26.129882812    
 2357-37-34      2157.0000000        2174.8188477       -17.818847656    
 2357-66-48      2119.0000000        2105.7883301        13.211669922    
 2357-71-12      2085.0000000        2093.1662598       -8.1662597656    
 2357-71-365     2093.0000000        2092.6640625       0.33593750000    
 2336-61-21      2132.0000000        2121.2282715        10.771728516    
 2363-56-38      2144.0000000        2135.9458008        8.0541992188    
 2363-66-48      2121.0000000        2107.8125000        13.187500000    
 2363-71-5       2102.0000000        2095.6867676        6.3132324219    
 2363-71-365     2103.0000000        2095.6269531        7.3730468750    
 2460-22-25      2164.0000000        2191.9760742       -27.976074219    
 2460-48-362     2136.0000000        2147.8142090       -11.814208984    
 2460-55-343     2134.0000000        2130.4255371        3.5744628906    
 2460-61-20      2124.0000000        2115.5722656        8.4277343750    
 2460-66-49      2104.0000000        2097.1232910        6.8767089844    
 2460-71-41      2096.0000000        2085.9257812        10.074218750    
 2460-71-350     2094.0000000        2085.5476074        8.4523925781    
 2399-56-38      2138.0000000        2134.2116699        3.7883300781    
 2399-66-48      2114.0000000        2104.5136719        9.4863281250    
 2399-71-5       2100.0000000        2092.5139160        7.4860839844    
 2399-71-365     2099.0000000        2092.5493164        6.4506835938    
 2373-56-6       2140.0000000        2137.6601562        2.3398437500    
 2373-61-6       2129.0000000        2123.8857422        5.1142578125    
 2373-66-48      2121.0000000        2107.5312500        13.468750000    
 2373-71-12      2104.0000000        2095.9902344        8.0097656250    
 2373-71-365     2104.0000000        2096.0996094        7.9003906250    
 2356-56-38      2142.0000000        2141.2194824       0.78051757812    
 2356-66-42      2133.0000000        2112.1188965        20.881103516    
 2356-71-5       2113.0000000        2102.0969238        10.903076172    
 2356-71-365     2115.0000000        2102.4104004        12.589599609    
 2389-8-37       2225.0000000        2232.0888672       -7.0888671875    
 2389-12-38      2209.0000000        2224.5065918       -15.506591797    
 2388-17-34      2187.0000000        2213.8349609       -26.834960938    
 2388-22-25      2175.0000000        2204.7958984       -29.795898438    
 2388-32-46      2167.0000000        2193.0205078       -26.020507812    
 2388-38-32      2160.0000000        2175.9504395       -15.950439453    
 2343-12-50      2205.0000000        2226.2646484       -21.264648438    
 2343-17-35      2190.0000000        2215.3542480       -25.354248047    
 2343-22-24      2178.0000000        2206.0957031       -28.095703125    
 2343-61-21      2153.0000000        2131.0554199        21.944580078    
 2427-42-363     2149.0000000        2169.0029297       -20.002929688    
 2427-48-337     2143.0000000        2160.5981445       -17.598144531    
 2427-61-20      2124.0000000        2131.1567383       -7.1567382812    
 2427-66-31      2109.0000000        2112.6503906       -3.6503906250    
 2418-10-262     2219.0000000        2232.4106445       -13.410644531    
 2408-10-262     2234.0000000        2238.1157227       -4.1157226562    
 2431-7-316      2228.0000000        2234.8757324       -6.8757324219    
 2431-12-38      2209.0000000        2226.6206055       -17.620605469    
 2446-22-25      2182.0000000        2207.7556152       -25.755615234    
 2447-7-32       2226.0000000        2229.0234375       -3.0234375000    
 2432-7-316      2220.0000000        2232.3071289       -12.307128906    
 2432-12-33      2203.0000000        2223.9843750       -20.984375000    
 2432-22-1       2179.0000000        2204.9594727       -25.959472656    
 2432-42-363     2152.0000000        2164.6108398       -12.610839844    
 2405-16-293     2215.0000000        2220.6437988       -5.6437988281    
 2383-12-50      2224.0000000        2237.0913086       -13.091308594    
 2383-17-24      2210.0000000        2227.8608398       -17.860839844    
 2383-22-24      2199.0000000        2218.3552246       -19.355224609    
 2383-27-11      2194.0000000        2212.1987305       -18.198730469    
 2383-32-48      2181.0000000        2201.4880371       -20.488037109    
 2387-61-20      2131.0000000        2135.9045410       -4.9045410156    
 2387-66-28      2117.0000000        2117.8378906      -0.83789062500    
 2387-71-54      2115.0000000        2113.3823242        1.6176757812    
 2372-27-47      2181.0000000        2208.9367676       -27.936767578    
 2372-42-363     2156.0000000        2171.6787109       -15.678710938    
 2372-56-19      2142.0000000        2146.8933105       -4.8933105469    
 2372-71-54      2109.0000000        2109.1152344      -0.11523437500    
 2332-61-20      2135.0000000        2136.5671387       -1.5671386719    
 2332-66-28      2141.0000000        2118.7775879        22.222412109    
 2332-71-54      2112.0000000        2114.1484375       -2.1484375000    
 2437-22-24      2213.0000000        2233.8249512       -20.824951172    
 2437-27-15      2208.0000000        2227.4768066       -19.476806641    
 2437-32-48      2196.0000000        2214.9243164       -18.924316406    
 2438-12-306     2233.0000000        2242.1308594       -9.1308593750    
 2438-16-298     2223.0000000        2234.2319336       -11.231933594    
 2430-42-363     2158.0000000        2175.1362305       -17.136230469    
 2430-48-337     2145.0000000        2166.8354492       -21.835449219    
 2430-56-19      2141.0000000        2154.6687012       -13.668701172    
 2430-66-28      2118.0000000        2121.8093262       -3.8093261719    
 2430-71-54      2126.0000000        2118.8068848        7.1931152344    
 2444-10-264     2239.0000000        2248.4326172       -9.4326171875    
 2424-10-265     2235.0000000        2249.2431641       -14.243164062    
 2425-10-265     2237.0000000        2252.2961426       -15.296142578    
 2414-10-263     2232.0000000        2253.4421387       -21.442138672    
 2458-42-362     2153.0000000        2171.1989746       -18.198974609    
 2458-48-362     2143.0000000        2161.8408203       -18.840820312    
 2458-56-32      2135.0000000        2148.8474121       -13.847412109    
 2458-61-20      2125.0000000        2134.5957031       -9.5957031250    
 2458-66-49      2112.0000000        2116.2590332       -4.2590332031    
 2458-71-41      2118.0000000        2112.3981934        5.6018066406    
 2458-71-365     2118.0000000        2113.1076660        4.8923339844    
 2439-42-363     2156.0000000        2172.3022461       -16.302246094    
 2439-48-337     2148.0000000        2162.8984375       -14.898437500    
 2439-56-19      2143.0000000        2150.0690918       -7.0690917969    
 2439-61-20      2130.0000000        2136.0512695       -6.0512695312    
 2439-66-31      2114.0000000        2117.7690430       -3.7690429688    
 2415-1-52       2259.0000000        2255.4316406        3.5683593750    
 2407-27-47      2201.0000000        2220.2294922       -19.229492188    
 2407-61-20      2133.0000000        2141.4501953       -8.4501953125    
 2407-66-28      2118.0000000        2122.8442383       -4.8442382812    
 2407-71-54      2127.0000000        2120.4062500        6.5937500000    
 2402-10-263     2229.0000000        2240.5793457       -11.579345703    
 2394-56-26      2149.0000000        2161.4519043       -12.451904297    
 2394-61-61      2142.0000000        2146.9562988       -4.9562988281    
 2394-66-25      2129.0000000        2128.3317871       0.66821289062    
 2386-60-341     2130.0000000        2144.1218262       -14.121826172    
 2386-66-49      2121.0000000        2125.7587891       -4.7587890625    
 2386-71-40      2124.0000000        2123.4104004       0.58959960938    
 2386-71-365     2125.0000000        2123.8303223        1.1696777344    
 2453-27-47      2278.0000000        2251.0498047        26.950195312    
 2413-2-121      2301.0000000        2281.2922363        19.707763672    
 2412-12-304     2252.0000000        2273.5727539       -21.572753906    
 2412-16-298     2240.0000000        2265.8867188       -25.886718750    
 2412-16-364     2242.0000000        2265.7978516       -23.797851562    
 2398-1-357      2279.0000000        2284.8552246       -5.8552246094    
 2398-7-2        2288.0000000        2282.2241211        5.7758789062    
 2395-42-363     2217.0000000        2206.7377930        10.262207031    
 2395-48-337     2208.0000000        2203.5239258        4.4760742188    
 2385-42-363     2211.0000000        2204.9411621        6.0588378906    
 2385-48-362     2200.0000000        2200.5986328      -0.59863281250    
 2385-55-346     2189.0000000        2190.6198730       -1.6198730469    
 2385-61-31      2180.0000000        2175.7153320        4.2846679688    
 2385-66-1       2161.0000000        2155.8605957        5.1394042969    
 2385-71-41      2161.0000000        2154.2402344        6.7597656250    
 2385-71-365     2167.0000000        2157.9174805        9.0825195312    
 2282-12-46      2278.0000000        2283.0603027       -5.0603027344    
 2282-17-24      2263.0000000        2275.1767578       -12.176757812    
 2282-22-24      2258.0000000        2267.4670410       -9.4670410156    
 2282-32-48      2238.0000000        2241.7111816       -3.7111816406    
 2326-26-293     2237.0000000        2248.2500000       -11.250000000    
 2326-42-363     2208.0000000        2201.2778320        6.7221679688    
 2326-48-362     2194.0000000        2194.2856445      -0.28564453125    
 2326-56-33      2168.0000000        2182.5957031       -14.595703125    
 2326-61-41      2167.0000000        2167.6474609      -0.64746093750    
 2326-66-45      2152.0000000        2150.0554199        1.9445800781    
 2326-71-41      2156.0000000        2149.7067871        6.2932128906    
 2326-71-365     2160.0000000        2150.7285156        9.2714843750    
 2260-56-26      2172.0000000        2183.1616211       -11.161621094    
 2260-61-61      2161.0000000        2167.8391113       -6.8391113281    
 2260-66-25      2147.0000000        2150.8696289       -3.8696289062    
 2260-71-61      2152.0000000        2151.2307129       0.76928710938    
 2202-71-61      2133.0000000        2142.4675293       -9.4675292969    
 2127-42-335     2192.0000000        2200.6477051       -8.6477050781    
 2283-7-311      2250.0000000        2256.4768066       -6.4768066406    
 2283-17-24      2219.0000000        2241.1259766       -22.125976562    
 2283-22-24      2212.0000000        2232.2705078       -20.270507812    
 2283-27-47      2202.0000000        2223.9365234       -21.936523438    
 2283-32-48      2187.0000000        2211.1811523       -24.181152344    
 2283-35-15      2180.0000000        2200.6850586       -20.685058594    
 2291-37-32      2177.0000000        2195.3791504       -18.379150391    
 2291-48-338     2156.0000000        2174.0708008       -18.070800781    
 2291-60-321     2133.0000000        2146.2722168       -13.272216797    
 2291-71-13      2129.0000000        2126.9216309        2.0783691406    
 2291-71-365     2130.0000000        2126.5864258        3.4135742188    
 2304-7-311      2243.0000000        2250.2775879       -7.2775878906    
 2304-12-38      2229.0000000        2243.3383789       -14.338378906    
 2304-17-3       2211.0000000        2234.5500488       -23.550048828    
 2304-22-24      2202.0000000        2225.2441406       -23.244140625    
 2304-27-11      2197.0000000        2218.0344238       -21.034423828    
 2237-7-79       2255.0000000        2262.1401367       -7.1401367188    
 2237-12-38      2241.0000000        2254.1235352       -13.123535156    
 2237-17-24      2224.0000000        2244.8955078       -20.895507812    
 2237-22-24      2217.0000000        2235.7175293       -18.717529297    
 2237-27-16      2200.0000000        2227.0600586       -27.060058594    
 2218-56-34      2138.0000000        2158.6699219       -20.669921875    
 2218-66-59      2128.0000000        2130.9807129       -2.9807128906    
 2218-71-54      2128.0000000        2128.0883789      -8.83789062500E-02
 2218-71-365     2128.0000000        2127.8032227       0.19677734375    
 2212-26-349     2217.0000000        2228.5610352       -11.561035156    
 2212-42-362     2184.0000000        2187.1059570       -3.1059570312    
 2212-61-20      2151.0000000        2149.0627441        1.9372558594    
 2212-66-59      2145.0000000        2134.0065918        10.993408203    
 2212-71-54      2148.0000000        2131.8256836        16.174316406    
 2212-71-365     2148.0000000        2131.5183105        16.481689453    
 2213-56-34      2137.0000000        2160.9123535       -23.912353516    
 2213-66-59      2132.0000000        2132.8427734      -0.84277343750    
 2213-71-54      2133.0000000        2130.4252930        2.5747070312    
 2213-71-365     2133.0000000        2130.1579590        2.8420410156    
 2177-42-363     2166.0000000        2184.6916504       -18.691650391    
 2177-48-337     2168.0000000        2175.3046875       -7.3046875000    
 2177-56-19      2145.0000000        2159.0634766       -14.063476562    
 2177-66-31      2130.0000000        2130.7482910      -0.74829101562    
 2177-71-54      2106.0000000        2127.2944336       -21.294433594    
 2175-6-283      2262.0000000        2268.1069336       -6.1069335938    
 2175-12-51      2240.0000000        2257.9687500       -17.968750000    
 2175-17-24      2228.0000000        2248.5283203       -20.528320312    
 2175-22-24      2220.0000000        2238.7590332       -18.759033203    
 2175-27-47      2202.0000000        2228.1447754       -26.144775391    
 2176-56-34      2142.0000000        2159.2575684       -17.257568359    
 2176-66-59      2132.0000000        2132.5991211      -0.59912109375    
 2176-71-54      2133.0000000        2129.8923340        3.1076660156    
 2176-71-365     2133.0000000        2129.6035156        3.3964843750    
 2154-56-19      2146.0000000        2161.9509277       -15.950927734    
 2154-61-20      2142.0000000        2147.0019531       -5.0019531250    
 2154-66-28      2135.0000000        2134.2021484       0.79785156250    
 2154-71-54      2139.0000000        2133.0571289        5.9428710938    
 2232-56-26      2147.0000000        2168.7658691       -21.765869141    
 2232-61-20      2140.0000000        2154.7993164       -14.799316406    
 2232-66-25      2134.0000000        2138.7087402       -4.7087402344    
 2232-71-53      2137.0000000        2137.5795898      -0.57958984375    
 2211-56-26      2149.0000000        2168.0341797       -19.034179688    
 2211-61-20      2141.0000000        2154.4343262       -13.434326172    
 2211-66-25      2137.0000000        2139.3276367       -2.3276367188    
 2211-71-53      2141.0000000        2138.1831055        2.8168945312    
 2233-56-26      2143.0000000        2163.8325195       -20.832519531    
 2233-61-20      2139.0000000        2150.0932617       -11.093261719    
 2170-56-26      2146.0000000        2164.5012207       -18.501220703    
 2170-66-25      2135.0000000        2136.5932617       -1.5932617188    
 2131-12-290     2246.0000000        2265.7846680       -19.784667969    
 2131-56-26      2155.0000000        2169.5556641       -14.555664062    
 2131-61-61      2150.0000000        2155.9182129       -5.9182128906    
 2131-66-25      2143.0000000        2141.7900391        1.2099609375    
 2131-71-53      2148.0000000        2141.0476074        6.9523925781    
 2137-42-363     2174.0000000        2185.5783691       -11.578369141    
 2137-48-338     2172.0000000        2176.9658203       -4.9658203125    
 2137-56-24      2171.0000000        2160.4370117        10.562988281    
 2137-66-19      2140.0000000        2129.6364746        10.363525391    
 2137-71-60      2138.0000000        2124.9982910        13.001708984    
 2289-11-38      2218.0000000        2232.7521973       -14.752197266    
 2289-17-33      2195.0000000        2220.3957520       -25.395751953    
 2289-22-24      2184.0000000        2210.8613281       -26.861328125    
 2289-32-32      2180.0000000        2198.4797363       -18.479736328    
 2241-10-33      2227.0000000        2238.7121582       -11.712158203    
 2241-17-33      2199.0000000        2224.8291016       -25.829101562    
 2241-22-24      2189.0000000        2214.9816895       -25.981689453    
 2241-42-363     2164.0000000        2176.3449707       -12.344970703    
 2241-48-334     2158.0000000        2168.0808105       -10.080810547    
 2241-56-26      2149.0000000        2150.4672852       -1.4672851562    
 2241-61-21      2141.0000000        2135.8918457        5.1081542969    
 2236-1-357      2246.0000000        2250.1533203       -4.1533203125    
 2236-6-341      2242.0000000        2246.9475098       -4.9475097656    
 2236-12-59      2219.0000000        2236.8586426       -17.858642578    
 2236-16-313     2206.0000000        2226.6257324       -20.625732422    
 2236-22-32      2193.0000000        2216.1430664       -23.143066406    
 2327-71-365     2124.0000000        2103.4577637        20.542236328    
 2306-71-54      2114.0000000        2101.7834473        12.216552734    
 2306-71-365     2108.0000000        2102.1611328        5.8388671875    
 2264-56-38      2145.0000000        2143.7214355        1.2785644531    
 2264-66-48      2132.0000000        2113.2111816        18.788818359    
 2264-71-5       2111.0000000        2102.6838379        8.3161621094    
 2264-71-365     2111.0000000        2104.1838379        6.8161621094    
 2307-71-54      2110.0000000        2107.5686035        2.4313964844    
 2307-71-365     2102.0000000        2108.6816406       -6.6816406250    
 2292-56-38      2153.0000000        2136.6486816        16.351318359    
 2292-66-42      2134.0000000        2108.2331543        25.766845703    
 2293-56-38      2152.0000000        2136.3352051        15.664794922    
 2293-66-48      2131.0000000        2108.1074219        22.892578125    
 2293-71-12      2097.0000000        2095.5314941        1.4685058594    
 2293-71-365     2111.0000000        2096.3283691        14.671630859    
 2272-55-346     2143.0000000        2142.7973633       0.20263671875    
 2272-71-54      2109.0000000        2106.0776367        2.9223632812    
 2272-71-365     2100.0000000        2107.6760254       -7.6760253906    
 2268-66-3       2122.0000000        2106.7873535        15.212646484    
 2268-71-365     2107.0000000        2096.7304688        10.269531250    
 2242-56-38      2144.0000000        2137.9738770        6.0261230469    
 2242-66-48      2122.0000000        2108.0263672        13.973632812    
 2242-71-365     2100.0000000        2096.8771973        3.1228027344    
 2257-56-38      2149.0000000        2141.2048340        7.7951660156    
 2257-66-48      2135.0000000        2111.0061035        23.993896484    
 2258-56-38      2152.0000000        2140.9763184        11.023681641    
 2258-66-48      2138.0000000        2110.8146973        27.185302734    
 2187-42-362     2156.0000000        2176.5881348       -20.588134766    
 2187-48-336     2152.0000000        2168.6181641       -16.618164062    
 2187-56-5       2143.0000000        2148.0451660       -5.0451660156    
 2187-61-6       2137.0000000        2130.3520508        6.6479492188    
 2187-66-48      2121.0000000        2113.8078613        7.1921386719    
 2187-71-54      2107.0000000        2104.0949707        2.9050292969    
 2187-71-349     2100.0000000        2104.0419922       -4.0419921875    
 2234-56-38      2152.0000000        2152.3024902      -0.30249023438    
 2234-66-48      2126.0000000        2120.7685547        5.2314453125    
 2226-66-48      2127.0000000        2120.9746094        6.0253906250    
 2155-56-38      2153.0000000        2154.9304199       -1.9304199219    
 2155-66-48      2127.0000000        2122.4399414        4.5600585938    
 2333-56-38      2142.0000000        2136.0920410        5.9079589844    
 2333-66-48      2117.0000000        2108.3005371        8.6994628906    
 2308-56-38      2143.0000000        2134.8154297        8.1845703125    
 2308-66-48      2123.0000000        2107.0285645        15.971435547    
 2308-71-21      2103.0000000        2094.4230957        8.5769042969    
 2308-71-365     2104.0000000        2094.5761719        9.4238281250    
 2329-56-38      2145.0000000        2134.7106934        10.289306641    
 2329-66-48      2123.0000000        2106.9902344        16.009765625    
 2329-71-12      2098.0000000        2094.4169922        3.5830078125    
 2329-71-365     2104.0000000        2094.4204102        9.5795898438    
 2319-66-48      2133.0000000        2108.4221191        24.577880859    
 2320-56-38      2146.0000000        2136.0771484        9.9228515625    
 2320-66-48      2131.0000000        2108.1965332        22.803466797    
 2320-71-12      2108.0000000        2095.8566895        12.143310547    
 2320-71-365     2112.0000000        2096.2160645        15.783935547    
 2299-55-343     2141.0000000        2137.4602051        3.5397949219    
 2299-71-54      2096.0000000        2095.8400879       0.15991210938    
 2299-71-365     2096.0000000        2096.0590820      -5.90820312500E-02
 2274-56-38      2145.0000000        2133.9023438        11.097656250    
 2274-71-54      2106.0000000        2098.1450195        7.8549804688    
 2274-71-365     2098.0000000        2098.9401855      -0.94018554688    
 2294-56-38      2148.0000000        2134.6640625        13.335937500    
 2294-66-48      2126.0000000        2106.7866211        19.213378906    
 2294-71-12      2100.0000000        2093.8771973        6.1228027344    
 2294-71-365     2105.0000000        2094.3342285        10.665771484    
 2273-56-38      2146.0000000        2134.4433594        11.556640625    
 2273-66-48      2124.0000000        2106.4426270        17.557373047    
 2273-71-21      2104.0000000        2093.5141602        10.485839844    
 2273-71-365     2103.0000000        2093.9643555        9.0356445312    
 2284-66-42      2108.0000000        2101.6232910        6.3767089844    
 2167-1-365      2231.0000000        2246.5424805       -15.542480469    
 2167-7-310      2218.0000000        2243.0080566       -25.008056641    
 2167-11-38      2206.0000000        2236.0058594       -30.005859375    
 2183-12-50      2200.0000000        2233.7773438       -33.777343750    
 2183-17-34      2181.0000000        2222.9172363       -41.917236328    
 2183-22-23      2171.0000000        2213.2041016       -42.204101562    
 2183-32-47      2167.0000000        2201.6420898       -34.642089844    
 2183-38-32      2162.0000000        2184.7121582       -22.712158203    
 2168-42-364     2155.0000000        2177.8227539       -22.822753906    
 2243-42-364     2133.0000000        2166.4428711       -33.442871094    
 2243-56-25      2126.0000000        2134.9743652       -8.9743652344    
 2243-66-19      2074.0000000        2101.4326172       -27.432617188    
 2108-66-48      2141.0000000        2129.3171387        11.682861328    
 2109-12-50      2233.0000000        2242.5739746       -9.5739746094    
 2109-17-34      2214.0000000        2231.9611816       -17.961181641    
 2109-22-23      2204.0000000        2221.7319336       -17.731933594    
 2109-42-362     2172.0000000        2183.8649902       -11.864990234    
 2109-48-363     2170.0000000        2175.9416504       -5.9416503906    
 2109-55-346     2156.0000000        2159.5197754       -3.5197753906    
 2109-60-323     2151.0000000        2143.1882324        7.8117675781    
 2109-66-48      2144.0000000        2126.0717773        17.928222656    
 2109-71-12      2126.0000000        2119.1376953        6.8623046875    
 2109-71-349     2126.0000000        2119.2126465        6.7873535156    
 1991-7-25       2262.0000000        2268.0744629       -6.0744628906    
 1991-12-50      2243.0000000        2257.2077637       -14.207763672    
 1991-17-34      2224.0000000        2247.5012207       -23.501220703    
 1991-22-23      2214.0000000        2236.7636719       -22.763671875    
 1991-27-11      2207.0000000        2229.2353516       -22.235351562    
 1991-38-32      2199.0000000        2204.6135254       -5.6135253906    
 1991-42-365     2178.0000000        2199.3854980       -21.385498047    
 1991-48-337     2181.0000000        2193.5236816       -12.523681641    
 1991-56-25      2168.0000000        2178.4899902       -10.489990234    
 1991-60-323     2162.0000000        2162.9589844      -0.95898437500    
 2038-12-51      2244.0000000        2255.6523438       -11.652343750    
 2038-17-24      2232.0000000        2246.8857422       -14.885742188    
 2038-22-24      2223.0000000        2236.2978516       -13.297851562    
 2038-56-19      2217.0000000        2167.0322266        49.967773438    
 2122-61-21      2149.0000000        2146.7927246        2.2072753906    
 2075-56-38      2165.0000000        2166.3408203       -1.3408203125    
 2039-61-21      2161.0000000        2159.9970703        1.0029296875    
 2021-61-20      2161.0000000        2161.5068359      -0.50683593750    
 2020-61-21      2164.0000000        2160.8020020        3.1979980469    
 1987-66-48      2158.0000000        2149.9650879        8.0349121094    
 1958-42-362     2187.0000000        2204.3068848       -17.306884766    
 1958-48-362     2189.0000000        2198.7753906       -9.7753906250    
 1958-55-346     2175.0000000        2185.2131348       -10.213134766    
 1958-61-20      2168.0000000        2169.4902344       -1.4902343750    
 1958-66-1       2158.0000000        2153.9877930        4.0122070312    
 1958-71-47      2154.0000000        2149.0625000        4.9375000000    
 1958-71-349     2153.0000000        2149.1247559        3.8752441406    
 1952-12-301     2256.0000000        2261.2937012       -5.2937011719    
 1952-17-4       2237.0000000        2255.6066895       -18.606689453    
 1952-22-32      2234.0000000        2243.9187012       -9.9187011719    
 1952-27-11      2225.0000000        2235.6540527       -10.654052734    
 2107-56-26      2157.0000000        2167.1418457       -10.141845703    
 2107-61-20      2145.0000000        2153.6198730       -8.6198730469    
 2107-71-53      2148.0000000        2139.4204102        8.5795898438    
 2079-7-152      2264.0000000        2274.4394531       -10.439453125    
 2079-61-20      2145.0000000        2156.0976562       -11.097656250    
 2057-42-362     2188.0000000        2199.1025391       -11.102539062    
 2057-48-362     2181.0000000        2188.1679688       -7.1679687500    
 2057-55-346     2150.0000000        2170.5849609       -20.584960938    
 2057-61-20      2156.0000000        2156.8295898      -0.82958984375    
 2057-65-354     2147.0000000        2144.4082031        2.5917968750    
 2057-71-56      2152.0000000        2143.7524414        8.2475585938    
 2057-71-365     2152.0000000        2143.5371094        8.4628906250    
 2161-6-283      2266.0000000        2267.4943848       -1.4943847656    
 2161-10-283     2246.0000000        2259.6669922       -13.666992188    
 2161-17-24      2232.0000000        2247.9060059       -15.906005859    
 2161-22-24      2224.0000000        2238.1508789       -14.150878906    
 2161-27-47      2212.0000000        2227.6149902       -15.614990234    
 2161-32-48      2199.0000000        2215.0532227       -16.053222656    
 2161-38-32      2192.0000000        2195.6086426       -3.6086425781    
 2094-61-20      2148.0000000        2151.0153809       -3.0153808594    
 2094-66-28      2138.0000000        2138.2712402      -0.27124023438    
 2094-71-54      2143.0000000        2137.0126953        5.9873046875    
 2059-7-311      2263.0000000        2265.3640137       -2.3640136719    
 2059-12-51      2255.0000000        2258.8088379       -3.8088378906    
 2059-17-4       2229.0000000        2250.4626465       -21.462646484    
 2059-22-24      2220.0000000        2240.1799316       -20.179931641    
 2059-27-47      2219.0000000        2230.5273438       -11.527343750    
 2059-61-21      2174.0000000        2153.1579590        20.842041016    
 1989-42-365     2190.0000000        2203.4868164       -13.486816406    
 1989-56-17      2179.0000000        2179.0905762      -9.05761718750E-02
 1989-61-20      2170.0000000        2164.4604492        5.5395507812    
 1968-42-365     2192.0000000        2206.9194336       -14.919433594    
 1968-56-17      2180.0000000        2184.3857422       -4.3857421875    
 1968-61-20      2173.0000000        2169.1706543        3.8293457031    
 1937-56-17      2189.0000000        2187.7907715        1.2092285156    
 1937-61-20      2176.0000000        2172.3789062        3.6210937500    
 1937-66-27      2171.0000000        2157.1787109        13.821289062    
 2007-61-21      2165.0000000        2164.1462402       0.85375976562    
 2007-66-25      2159.0000000        2152.4663086        6.5336914062    
 1981-61-21      2168.0000000        2167.0622559       0.93774414062    
 2037-66-32      2145.0000000        2157.5156250       -12.515625000    
 2106-26-349     2227.0000000        2242.8188477       -15.818847656    
 2106-32-32      2213.0000000        2224.6293945       -11.629394531    
 2106-42-362     2192.0000000        2201.0017090       -9.0017089844    
 2106-48-362     2179.0000000        2187.2231445       -8.2231445312    
 2106-56-34      2160.0000000        2171.1901855       -11.190185547    
 2106-61-41      2151.0000000        2158.5593262       -7.5593261719    
 2106-66-54      2145.0000000        2147.2138672       -2.2138671875    
 2106-71-41      2144.0000000        2147.7885742       -3.7885742188    
 2106-71-365     2148.0000000        2147.7431641       0.25683593750    
 1951-12-51      2290.0000000        2296.9790039       -6.9790039062    
 1951-17-39      2273.0000000        2284.3464355       -11.346435547    
 1951-22-28      2266.0000000        2272.8232422       -6.8232421875    
 1951-38-354     2221.0000000        2227.7490234       -6.7490234375    
 1951-42-363     2215.0000000        2220.8186035       -5.8186035156    
 1951-48-362     2201.0000000        2208.5046387       -7.5046386719    
 1951-55-346     2181.0000000        2192.3085938       -11.308593750    
 1951-61-41      2171.0000000        2178.3776855       -7.3776855469    
 1951-66-49      2160.0000000        2166.6047363       -6.6047363281    
 1951-71-56      2163.0000000        2169.2404785       -6.2404785156    
 1951-71-365     2165.0000000        2169.8220215       -4.8220214844    
 2494-1-365      2306.0000000        2307.7890625       -1.7890625000    
 2489-22-66      2270.0000000        2261.3662109        8.6337890625    
 2489-27-87      2267.0000000        2254.0751953        12.924804688    
 2489-32-1       2263.0000000        2243.7946777        19.205322266    
 2489-33-60      2258.0000000        2239.2136230        18.786376953    
 2489-42-363     2252.0000000        2213.1059570        38.894042969    
 2489-55-349     2237.0000000        2199.4221191        37.577880859    
 2429-61-61      2229.0000000        2203.0961914        25.903808594    
 2429-66-25      2207.0000000        2182.3664551        24.633544922    
 2429-71-53      2208.0000000        2178.6059570        29.394042969    
 2457-22-65      2248.0000000        2264.1628418       -16.162841797    
 2457-26-341     2237.0000000        2256.4279785       -19.427978516    
 2457-31-335     2239.0000000        2243.4450684       -4.4450683594    
 2457-33-60      2232.0000000        2237.6225586       -5.6225585938    
 2457-42-363     2227.0000000        2210.7446289        16.255371094    
 2457-48-337     2219.0000000        2209.6330566        9.3669433594    
 2457-56-18      2213.0000000        2199.6923828        13.307617188    
 2457-61-47      2207.0000000        2185.1181641        21.881835938    
 2457-66-32      2182.0000000        2164.5634766        17.436523438    
 2457-71-14      2184.0000000        2160.2355957        23.764404297    
 2457-71-42      2182.0000000        2160.4550781        21.544921875    
 2457-71-365     2191.0000000        2163.4633789        27.536621094    
 2457-71-365     2188.0000000        2163.4633789        24.536621094    
 2426-61-61      2226.0000000        2188.0678711        37.932128906    
 2426-66-25      2191.0000000        2166.7397461        24.260253906    
 2378-22-66      2269.0000000        2276.4191895       -7.4191894531    
 2378-26-341     2254.0000000        2267.6149902       -13.614990234    
 2378-31-335     2251.0000000        2251.2338867      -0.23388671875    
 2377-7-1        2301.0000000        2297.6271973        3.3728027344    
 2377-12-92      2285.0000000        2293.0930176       -8.0930175781    
 2382-1-365      2301.0000000        2291.3486328        9.6513671875    
 2369-16-364     2258.0000000        2276.4462891       -18.446289062    
 2397-10-255     2291.0000000        2310.3266602       -19.326660156    
 2381-66-32      2184.0000000        2177.9138184        6.0861816406    
 2368-56-25      2246.0000000        2225.6921387        20.307861328    
 2368-61-48      2216.0000000        2206.6782227        9.3217773438    
 2364-56-25      2246.0000000        2224.3308105        21.669189453    
 2364-61-48      2218.0000000        2205.5222168        12.477783203    
 2364-66-24      2182.0000000        2183.6359863       -1.6359863281    
 2364-71-14      2189.0000000        2184.9091797        4.0908203125    
 2364-71-365     2205.0000000        2190.2717285        14.728271484    
 2361-56-25      2233.0000000        2219.7973633        13.202636719    
 2361-61-48      2213.0000000        2201.2221680        11.777832031    
 2361-66-24      2179.0000000        2179.8286133      -0.82861328125    
 2361-71-14      2186.0000000        2181.4240723        4.5759277344    
 2361-71-365     2200.0000000        2186.0417480        13.958251953    
 2349-42-364     2247.0000000        2230.6577148        16.342285156    
 2349-48-341     2231.0000000        2229.0974121        1.9025878906    
 2349-56-18      2229.0000000        2223.0952148        5.9047851562    
 2349-61-48      2207.0000000        2203.9323730        3.0676269531    
 2349-66-24      2174.0000000        2182.2492676       -8.2492675781    
 2349-71-14      2184.0000000        2184.3854980      -0.38549804688    
 2349-71-365     2198.0000000        2189.3977051        8.6022949219    
 2422-32-60      2288.0000000        2282.3793945        5.6206054688    
 2422-33-60      2281.0000000        2277.1352539        3.8647460938    
 2422-42-363     2283.0000000        2247.5507812        35.449218750    
 2422-48-357     2271.0000000        2248.9213867        22.078613281    
 2422-55-349     2262.0000000        2244.1472168        17.852783203    
 2422-61-3       2255.0000000        2224.8142090        30.185791016    
 2406-22-65      2281.0000000        2303.1540527       -22.154052734    
 2396-16-298     2300.0000000        2308.6447754       -8.6447753906    
 2396-22-32      2300.0000000        2304.8339844       -4.8339843750    
 2396-27-10      2326.0000000        2295.1413574        30.858642578    
 2401-22-65      2282.0000000        2301.2243652       -19.224365234    
 2376-26-341     2266.0000000        2294.4807129       -28.480712891    
 2365-22-65      2290.0000000        2300.6813965       -10.681396484    
 2365-27-4       2327.0000000        2290.8845215        36.115478516    
 2335-56-18      2237.0000000        2226.6037598        10.396240234    
 2335-60-322     2219.0000000        2207.8105469        11.189453125    
 2335-65-326     2181.0000000        2185.0693359       -4.0693359375    
 2335-71-365     2205.0000000        2193.1589355        11.841064453    
 2348-56-18      2235.0000000        2227.3598633        7.6401367188    
 2348-61-48      2211.0000000        2209.0234375        1.9765625000    
 2348-66-24      2178.0000000        2189.2883301       -11.288330078    
 2348-71-365     2205.0000000        2196.2011719        8.7988281250    
 2347-42-364     2259.0000000        2241.8281250        17.171875000    
 2347-48-337     2252.0000000        2242.0156250        9.9843750000    
 2347-56-18      2242.0000000        2236.6708984        5.3291015625    
 2347-61-48      2222.0000000        2216.7639160        5.2360839844    
 2347-66-24      2187.0000000        2194.3286133       -7.3286132812    
 2380-61-48      2240.0000000        2223.8869629        16.113037109    
 2392-61-48      2242.0000000        2223.1911621        18.808837891    
 2391-61-48      2240.0000000        2224.2404785        15.759521484    
 2391-66-25      2195.0000000        2200.9550781       -5.9550781250    
 2374-66-40      2191.0000000        2201.1445312       -10.144531250    
 2374-71-365     2221.0000000        2210.1555176        10.844482422    
 2354-16-361     2331.0000000        2341.6291504       -10.629150391    
 2353-48-274     2274.0000000        2279.8476562       -5.8476562500    
 2352-22-65      2336.0000000        2350.2302246       -14.230224609    
 2351-66-45      2366.0000000        2290.7851562        75.214843750    
 2351-71-42      2367.0000000        2288.4619141        78.538085938    
 2351-71-365     2368.0000000        2288.1894531        79.810546875    
 2341-55-348     2402.0000000        2343.8266602        58.173339844    
 2341-66-45      2396.0000000        2308.5874023        87.412597656    
 2341-71-42      2399.0000000        2305.4333496        93.566650391    
 2341-71-365     2403.0000000        2305.7917480        97.208251953    
 2350-42-355     2373.0000000        2332.3542480        40.645751953    
 2350-48-355     2372.0000000        2337.2497559        34.750244141    
 2350-55-348     2373.0000000        2332.5004883        40.499511719    
 2350-61-3       2371.0000000        2315.6684570        55.331542969    
 2350-71-42      2367.0000000        2294.6611328        72.338867188    
 2350-71-365     2368.0000000        2293.9843750        74.015625000    
 2358-48-306     2396.0000000        2361.4897461        34.510253906    
 2215-1-357      2435.0000000        2428.4838867        6.5161132812    
 2215-6-295      2429.0000000        2428.9460449       5.39550781250E-02
 2215-10-349     2430.0000000        2428.8774414        1.1225585938    
 2215-22-68      2427.0000000        2427.8845215      -0.88452148438    
 2215-31-335     2427.0000000        2413.5837402        13.416259766    
 2215-33-1       2433.0000000        2410.3005371        22.699462891    
 2215-39-60      2425.0000000        2398.0698242        26.930175781    
 2215-42-356     2425.0000000        2392.4067383        32.593261719    
 2215-48-336     2428.0000000        2394.5546875        33.445312500    
 2164-48-337     2411.0000000        2376.0131836        34.986816406    
 2164-56-24      2419.0000000        2372.3930664        46.606933594    
 2164-61-54      2410.0000000        2354.2861328        55.713867188    
 2164-66-24      2417.0000000        2333.3151855        83.684814453    
 2164-71-41      2416.0000000        2335.0000000        81.000000000    
 2135-48-337     2421.0000000        2401.2382812        19.761718750    
 2135-56-24      2428.0000000        2396.2761230        31.723876953    
 2135-61-55      2415.0000000        2378.9831543        36.016845703    
 2135-66-26      2427.0000000        2356.9008789        70.099121094    
 2135-71-42      2427.0000000        2358.7160645        68.283935547    
 2238-56-23      2443.0000000        2367.5593262        75.440673828    
 2334-22-67      2386.0000000        2406.9411621       -20.941162109    
 2334-26-349     2386.0000000        2400.7451172       -14.745117188    
 2334-33-60      2381.0000000        2384.8137207       -3.8137207031    
 2334-42-363     2387.0000000        2362.1318359        24.868164062    
 2334-48-274     2394.0000000        2367.4660645        26.533935547    
 2334-55-321     2395.0000000        2362.2023926        32.797607422    
 2334-60-319     2396.0000000        2347.0095215        48.990478516    
 2334-65-326     2388.0000000        2329.7519531        58.248046875    
 2334-71-14      2393.0000000        2325.9855957        67.014404297    
 2334-71-42      2391.0000000        2326.0520020        64.947998047    
 2334-71-365     2396.0000000        2327.1298828        68.870117188    
 2334-71-365     2387.0000000        2327.1298828        59.870117188    
 2225-55-321     2384.0000000        2344.2028809        39.797119141    
 2223-55-279     2360.0000000        2344.7243652        15.275634766    
 2223-61-47      2357.0000000        2319.4216309        37.578369141    
 2223-66-32      2375.0000000        2297.1965332        77.803466797    
 2223-71-14      2337.0000000        2298.1071777        38.892822266    
 2223-71-365     2364.0000000        2306.0971680        57.902832031    
 2224-55-321     2382.0000000        2344.8286133        37.171386719    
 2224-61-47      2358.0000000        2321.2148438        36.785156250    
 2224-66-32      2371.0000000        2298.7905273        72.209472656    
 2142-48-274     2338.0000000        2312.3625488        25.637451172    
 2150-48-306     2340.0000000        2313.7387695        26.261230469    
 2150-55-321     2336.0000000        2308.8886719        27.111328125    
 2141-48-274     2337.0000000        2310.9594727        26.040527344    
 2141-55-321     2328.0000000        2305.0473633        22.952636719    
 2141-61-47      2327.0000000        2284.5153809        42.484619141    
 2141-71-14      2313.0000000        2280.2482910        32.751708984    
 2141-71-365     2336.0000000        2283.5378418        52.462158203    
 2140-48-274     2358.0000000        2322.9133301        35.086669922    
 2140-55-321     2348.0000000        2317.6674805        30.332519531    
 2140-66-18      2338.0000000        2295.1276855        42.872314453    
 2209-27-11      2417.0000000        2397.9113770        19.088623047    
 2209-31-351     2416.0000000        2387.5207520        28.479248047    
 2209-37-343     2408.0000000        2372.7565918        35.243408203    
 2208-56-23      2417.0000000        2369.9990234        47.000976562    
 2208-60-321     2410.0000000        2352.1914062        57.808593750    
 2208-65-299     2408.0000000        2331.7111816        76.288818359    
 2208-71-32      2408.0000000        2331.6918945        76.308105469    
 2208-71-365     2407.0000000        2335.6284180        71.371582031    
 2206-48-274     2414.0000000        2372.6918945        41.308105469    
 2206-55-321     2407.0000000        2369.1040039        37.895996094    
 2206-61-47      2405.0000000        2350.2106934        54.789306641    
 2206-71-14      2394.0000000        2331.8625488        62.137451172    
 2206-71-365     2399.0000000        2335.3432617        63.656738281    
 2182-55-321     2385.0000000        2356.7202148        28.279785156    
 2174-55-279     2360.0000000        2358.1555176        1.8444824219    
 2174-60-319     2380.0000000        2335.8271484        44.172851562    
 2174-65-326     2355.0000000        2313.4875488        41.512451172    
 2174-71-14      2338.0000000        2314.4946289        23.505371094    
 2174-71-365     2373.0000000        2321.6738281        51.326171875    
 2181-55-321     2368.0000000        2358.4172363        9.5827636719    
 2181-61-47      2366.0000000        2336.9929199        29.007080078    
 2139-1-357      2407.0000000        2398.5239258        8.4760742188    
 2138-48-274     2392.0000000        2368.7526855        23.247314453    
 2138-55-321     2390.0000000        2365.9946289        24.005371094    
 2138-61-47      2391.0000000        2345.1948242        45.805175781    
 2138-66-24      2397.0000000        2323.2392578        73.760742188    
 2138-71-14      2366.0000000        2323.8471680        42.152832031    
 2138-71-365     2393.0000000        2331.6870117        61.312988281    
 2253-16-361     2366.0000000        2389.2905273       -23.290527344    
 2251-48-274     2395.0000000        2358.0803223        36.919677734    
 2251-55-321     2391.0000000        2356.9851074        34.014892578    
 2314-12-116     2371.0000000        2384.7170410       -13.717041016    
 2314-22-67      2372.0000000        2382.6923828       -10.692382812    
 2314-33-60      2367.0000000        2355.6899414        11.310058594    
 2290-7-322      2357.0000000        2384.5434570       -27.543457031    
 2290-10-32      2363.0000000        2380.5622559       -17.562255859    
 2290-42-364     2348.0000000        2324.9699707        23.030029297    
 2290-48-355     2356.0000000        2333.3593750        22.640625000    
 2290-55-348     2378.0000000        2331.5202637        46.479736328    
 2290-65-354     2361.0000000        2289.8703613        71.129638672    
 2290-71-42      2379.0000000        2289.9851074        89.014892578    
 2290-71-365     2357.0000000        2293.8439941        63.156005859    
 2286-42-357     2345.0000000        2328.7822266        16.217773438    
 2286-48-355     2344.0000000        2336.0449219        7.9550781250    
 2286-61-3       2351.0000000        2313.7468262        37.253173828    
 2286-66-45      2371.0000000        2293.6506348        77.349365234    
 2287-42-357     2358.0000000        2326.8120117        31.187988281    
 2287-61-3       2363.0000000        2313.1899414        49.810058594    
 2287-71-42      2383.0000000        2291.7543945        91.245605469    
 2287-71-365     2360.0000000        2296.1213379        63.878662109    
 2278-22-67      2363.0000000        2379.6779785       -16.677978516    
 2278-26-362     2379.0000000        2371.2622070        7.7377929688    
 2278-31-335     2357.0000000        2354.3845215        2.6154785156    
 2278-33-60      2364.0000000        2347.8085938        16.191406250    
 2278-48-274     2365.0000000        2329.2106934        35.789306641    
 2129-66-40      2194.0000000        2236.7717285       -42.771728516    
 2129-71-42      2229.0000000        2246.0803223       -17.080322266    
 2129-71-365     2235.0000000        2248.5322266       -13.532226562    
 2146-7-1        2375.0000000        2371.8098145        3.1901855469    
 2146-11-86      2363.0000000        2372.0603027       -9.0603027344    
 2146-22-67      2347.0000000        2360.3583984       -13.358398438    
 2146-37-263     2287.0000000        2303.3310547       -16.331054688    
 2147-42-363     2279.0000000        2288.1589355       -9.1589355469    
 2147-48-362     2265.0000000        2283.9289551       -18.928955078    
 2147-55-349     2260.0000000        2280.2541504       -20.254150391    
 2145-2-132      2385.0000000        2377.5263672        7.4736328125    
 2144-2-132      2390.0000000        2385.0444336        4.9555664062    
 2126-48-274     2297.0000000        2318.8410645       -21.841064453    
 2126-55-321     2282.0000000        2314.9072266       -32.907226562    
 2126-61-47      2279.0000000        2292.9042969       -13.904296875    
 2126-71-14      2274.0000000        2281.5541992       -7.5541992188    
 2126-71-365     2290.0000000        2286.4445801        3.5554199219    
 2315-10-262     2351.0000000        2362.4509277       -11.450927734    
 2288-10-262     2361.0000000        2367.2033691       -6.2033691406    
 2248-56-23      2268.0000000        2284.0195312       -16.019531250    
 2239-16-361     2347.0000000        2358.1606445       -11.160644531    
 2239-22-32      2337.0000000        2358.0583496       -21.058349609    
 2239-27-10      2328.0000000        2346.0187988       -18.018798828    
 2239-56-23      2274.0000000        2287.8999023       -13.899902344    
 2267-56-25      2257.0000000        2261.2800293       -4.2800292969    
 2255-22-65      2326.0000000        2346.2465820       -20.246582031    
 2255-32-60      2302.0000000        2307.9084473       -5.9084472656    
 2255-38-60      2294.0000000        2282.0844727        11.915527344    
 2240-56-25      2269.0000000        2288.8876953       -19.887695312    
 2240-66-32      2195.0000000        2242.0031738       -47.003173828    
 2240-71-54      2245.0000000        2244.9926758       7.32421875000E-03
 2114-61-49      2224.0000000        2246.3173828       -22.317382812    
 2114-66-40      2195.0000000        2229.7204590       -34.720458984    
 2114-71-42      2225.0000000        2237.9658203       -12.965820312    
 2114-71-365     2238.0000000        2242.6437988       -4.6437988281    
 2191-56-23      2242.0000000        2270.1752930       -28.175292969    
 2191-61-61      2224.0000000        2248.7207031       -24.720703125    
 2191-66-25      2194.0000000        2229.9748535       -35.974853516    
 2210-48-334     2283.0000000        2293.7998047       -10.799804688    
 2210-55-321     2270.0000000        2291.8591309       -21.859130859    
 2210-61-47      2259.0000000        2268.6022949       -9.6022949219    
 2210-66-24      2229.0000000        2248.6621094       -19.662109375    
 2210-71-42      2225.0000000        2254.5363770       -29.536376953    
 2210-71-365     2238.0000000        2260.7546387       -22.754638672    
 2162-48-274     2254.0000000        2265.5815430       -11.581542969    
 2162-65-354     2184.0000000        2221.4003906       -37.400390625    
 2162-71-42      2213.0000000        2231.8046875       -18.804687500    
 2162-71-365     2224.0000000        2235.5620117       -11.562011719    
 2298-61-48      2210.0000000        2215.6191406       -5.6191406250    
 2298-66-24      2176.0000000        2196.4836426       -20.483642578    
 2298-71-14      2191.0000000        2199.1796875       -8.1796875000    
 2298-71-365     2205.0000000        2204.1130371       0.88696289062    
 2250-22-69      2301.0000000        2305.4304199       -4.4304199219    
 2250-27-61      2307.0000000        2293.8300781        13.169921875    
 2227-42-363     2240.0000000        2229.1745605        10.825439453    
 2227-48-365     2217.0000000        2221.1315918       -4.1315917969    
 2227-55-349     2199.0000000        2215.4084473       -16.408447266    
 2227-61-54      2174.0000000        2194.9790039       -20.979003906    
 2227-66-45      2151.0000000        2178.9099121       -27.909912109    
 2227-71-49      2170.0000000        2185.9948730       -15.994873047    
 2227-71-365     2178.0000000        2187.9997559       -9.9997558594    
 2152-22-68      2316.0000000        2318.7177734       -2.7177734375    
 2263-10-144     2292.0000000        2292.0056152      -5.61523437500E-03
 2276-22-61      2265.0000000        2274.2795410       -9.2795410156    
 2276-26-301     2254.0000000        2264.9072266       -10.907226562    
 2276-48-362     2208.0000000        2207.5590820       0.44091796875    
 2276-55-349     2193.0000000        2199.1840820       -6.1840820312    
 2276-61-33      2176.0000000        2181.6618652       -5.6618652344    
 2276-66-32      2153.0000000        2163.1186523       -10.118652344    
 2276-71-14      2154.0000000        2165.8071289       -11.807128906    
 2276-71-41      2163.0000000        2165.6882324       -2.6882324219    
 2276-71-365     2168.0000000        2166.9958496        1.0041503906    
 2276-71-365     2168.0000000        2166.9958496        1.0041503906    
 2229-61-33      2163.0000000        2182.4091797       -19.409179688    
 2229-66-32      2144.0000000        2165.6022949       -21.602294922    
 2229-71-14      2160.0000000        2171.4665527       -11.466552734    
 2229-71-41      2160.0000000        2171.4116211       -11.411621094    
 2229-71-365     2165.0000000        2172.6489258       -7.6489257812    
 2229-71-365     2165.0000000        2172.6489258       -7.6489257812    
 2235-42-335     2226.0000000        2216.2802734        9.7197265625    
 2130-8-49       2299.0000000        2298.9201660       7.98339843750E-02
 2130-12-58      2285.0000000        2292.1325684       -7.1325683594    
 2130-17-87      2271.0000000        2282.9384766       -11.938476562    
 2130-22-79      2267.0000000        2271.3041992       -4.3041992188    
 2130-32-60      2246.0000000        2244.0690918        1.9309082031    
 2130-42-363     2218.0000000        2212.4033203        5.5966796875    
 2130-48-362     2201.0000000        2200.5561523       0.44384765625    
 2153-48-362     2195.0000000        2200.4072266       -5.4072265625    
 2153-55-349     2174.0000000        2190.3815918       -16.381591797    
 2153-61-33      2157.0000000        2173.7546387       -16.754638672    
 2153-71-41      2153.0000000        2163.6120605       -10.612060547    
 2153-71-365     2157.0000000        2163.9929199       -6.9929199219    
 2217-66-32      2149.0000000        2172.1528320       -23.152832031    
 2231-22-65      2279.0000000        2283.9760742       -4.9760742188    
 2231-42-363     2229.0000000        2219.3503418        9.6496582031    
 2231-48-362     2209.0000000        2210.2258301       -1.2258300781    
 2231-55-349     2193.0000000        2204.1179199       -11.117919922    
 2231-61-54      2170.0000000        2184.2460938       -14.246093750    
 2231-66-49      2150.0000000        2167.1889648       -17.188964844    
 2231-71-41      2166.0000000        2173.7434082       -7.7434082031    
 2231-71-365     2172.0000000        2174.8645020       -2.8645019531    
 2228-42-363     2226.0000000        2219.6611328        6.3388671875    
 2228-48-362     2207.0000000        2210.4475098       -3.4475097656    
 2228-55-349     2190.0000000        2204.3581543       -14.358154297    
 2228-61-54      2167.0000000        2184.4760742       -17.476074219    
 2228-66-49      2146.0000000        2167.6120605       -21.612060547    
 2228-71-41      2163.0000000        2174.2375488       -11.237548828    
 2228-71-365     2169.0000000        2175.5129395       -6.5129394531    
 2056-12-58      2310.0000000        2310.4777832      -0.47778320312    
 2056-22-66      2295.0000000        2290.6064453        4.3935546875    
 2056-27-61      2284.0000000        2277.6201172        6.3798828125    
 2032-7-32       2315.0000000        2310.1164551        4.8835449219    
 2032-12-58      2298.0000000        2303.5500488       -5.5500488281    
 2032-32-83      2257.0000000        2252.0920410        4.9079589844    
 2033-42-363     2223.0000000        2217.7973633        5.2026367188    
 2033-48-362     2197.0000000        2202.2011719       -5.2011718750    
 2033-56-34      2161.0000000        2188.9538574       -27.953857422    
 2033-61-56      2153.0000000        2173.3752441       -20.375244141    
 2033-66-54      2142.0000000        2161.5163574       -19.516357422    
 2033-71-49      2159.0000000        2172.0747070       -13.074707031    
 2033-71-365     2161.0000000        2172.6909180       -11.690917969    
 2000-37-34      2238.0000000        2233.5439453        4.4560546875    
 2000-55-349     2170.0000000        2189.3137207       -19.313720703    
 2004-48-357     2201.0000000        2205.6484375       -4.6484375000    
 2004-71-49      2165.0000000        2174.5917969       -9.5917968750    
 2004-71-365     2168.0000000        2175.4670410       -7.4670410156    
 2019-17-82      2303.0000000        2304.4528809       -1.4528808594    
 2019-22-69      2296.0000000        2293.4125977        2.5874023438    
 2019-42-335     2229.0000000        2222.3728027        6.6271972656    
 2019-48-365     2203.0000000        2206.1174316       -3.1174316406    
 2019-66-40      2144.0000000        2167.4714355       -23.471435547    
 2019-71-49      2164.0000000        2180.3796387       -16.379638672    
 2019-71-365     2169.0000000        2181.3935547       -12.393554688    
 2015-66-40      2141.0000000        2167.9133301       -26.913330078    
 2015-71-49      2161.0000000        2180.0270996       -19.027099609    
 2015-71-365     2166.0000000        2181.0844727       -15.084472656    
 2023-42-363     2228.0000000        2222.7880859        5.2119140625    
 2023-48-365     2202.0000000        2207.6013184       -5.6013183594    
 2023-55-349     2167.0000000        2195.2041016       -28.204101562    
 2023-61-54      2153.0000000        2178.7282715       -25.728271484    
 2023-71-49      2161.0000000        2180.6347656       -19.634765625    
 2023-71-365     2166.0000000        2181.6555176       -15.655517578    
 2060-48-365     2222.0000000        2224.2343750       -2.2343750000    
 2060-55-356     2188.0000000        2215.2429199       -27.242919922    
 2060-61-54      2164.0000000        2195.5539551       -31.553955078    
 2060-66-19      2151.0000000        2187.9943848       -36.994384766    
 2060-71-42      2177.0000000        2204.3220215       -27.322021484    
 2060-71-365     2185.0000000        2206.1459961       -21.145996094    
 2115-22-66      2303.0000000        2305.5222168       -2.5222167969    
 2105-42-363     2241.0000000        2225.3330078        15.666992188    
 2105-48-362     2214.0000000        2213.4860840       0.51391601562    
 2105-56-33      2183.0000000        2206.7316895       -23.731689453    
 2105-61-33      2164.0000000        2187.1945801       -23.194580078    
 2105-66-32      2144.0000000        2175.4389648       -31.438964844    
 2105-71-42      2167.0000000        2189.1745605       -22.174560547    
 2105-71-365     2174.0000000        2190.6149902       -16.614990234    
 2098-65-354     2136.0000000        2175.9191895       -39.919189453    
 2098-71-42      2167.0000000        2189.4191895       -22.419189453    
 2098-71-365     2174.0000000        2191.0002441       -17.000244141    
 2103-42-363     2240.0000000        2223.9028320        16.097167969    
 2103-48-362     2214.0000000        2211.9062500        2.0937500000    
 2103-61-33      2163.0000000        2185.7514648       -22.751464844    
 2103-66-32      2143.0000000        2173.9580078       -30.958007812    
 2103-71-42      2166.0000000        2187.6997070       -21.699707031    
 2103-71-365     2173.0000000        2189.0295410       -16.029541016    
 2055-22-66      2304.0000000        2309.2104492       -5.2104492188    
 2055-32-83      2278.0000000        2271.5317383        6.4682617188    
 2014-12-66      2336.0000000        2335.8037109       0.19628906250    
 2014-22-69      2316.0000000        2316.6306152      -0.63061523438    
 2014-27-3       2305.0000000        2302.2697754        2.7302246094    
 2014-42-363     2244.0000000        2225.5515137        18.448486328    
 2014-48-357     2217.0000000        2210.1774902        6.8225097656    
 2014-66-19      2145.0000000        2178.1276855       -33.127685547    
 2014-71-42      2170.0000000        2198.3332520       -28.333251953    
 2014-71-365     2177.0000000        2199.3459473       -22.345947266    
 2013-42-363     2241.0000000        2228.7624512        12.237548828    
 2013-48-357     2214.0000000        2213.1860352       0.81396484375    
 2013-55-350     2174.0000000        2200.6743164       -26.674316406    
 2013-61-33      2152.0000000        2183.0515137       -31.051513672    
 2013-66-19      2142.0000000        2179.6855469       -37.685546875    
 2013-71-42      2167.0000000        2198.6188965       -31.618896484    
 2013-71-365     2174.0000000        2199.9052734       -25.905273438    
 1974-22-79      2318.0000000        2316.0510254        1.9489746094    
 1974-26-307     2301.0000000        2303.5598145       -2.5598144531    
 1974-42-363     2246.0000000        2227.9895020        18.010498047    
 1974-48-357     2218.0000000        2209.8474121        8.1525878906    
 1966-42-363     2245.0000000        2229.4257812        15.574218750    
 1966-48-350     2223.0000000        2211.1850586        11.814941406    
 1966-55-350     2165.0000000        2190.7492676       -25.749267578    
 1966-61-33      2154.0000000        2176.1892090       -22.189208984    
 1966-66-19      2145.0000000        2177.2824707       -32.282470703    
 1966-71-49      2171.0000000        2197.5695801       -26.569580078    
 1966-71-365     2177.0000000        2198.9536133       -21.953613281    
 1972-71-49      2170.0000000        2199.8120117       -29.812011719    
 1972-71-365     2176.0000000        2201.3615723       -25.361572266    
 2036-11-305     2344.0000000        2360.5500488       -16.550048828    
 2035-48-365     2231.0000000        2249.3125000       -18.312500000    
 2035-56-18      2185.0000000        2235.9077148       -50.907714844    
 2035-61-54      2162.0000000        2217.5520020       -55.552001953    
 2035-66-45      2155.0000000        2215.0937500       -60.093750000    
 2035-71-42      2184.0000000        2228.6105957       -44.610595703    
 2035-71-365     2192.0000000        2230.6076660       -38.607666016    
 1999-22-69      2326.0000000        2327.0498047       -1.0498046875    
 1999-26-349     2314.0000000        2314.2192383      -0.21923828125    
 1999-32-73      2299.0000000        2292.6467285        6.3532714844    
 1999-42-363     2250.0000000        2246.8110352        3.1889648438    
 1999-48-357     2223.0000000        2229.0253906       -6.0253906250    
 1999-55-353     2185.0000000        2212.0800781       -27.080078125    
 1999-60-309     2168.0000000        2194.9528809       -26.952880859    
 1999-66-28      2150.0000000        2193.7563477       -43.756347656    
 1999-71-42      2176.0000000        2210.6357422       -34.635742188    
 1999-71-365     2184.0000000        2212.7165527       -28.716552734    
 1957-12-66      2349.0000000        2350.2756348       -1.2756347656    
 1957-22-79      2326.0000000        2328.2746582       -2.2746582031    
 1957-27-3       2317.0000000        2316.0222168       0.97778320312    
 1957-32-60      2301.0000000        2294.8486328        6.1513671875    
 1957-42-363     2251.0000000        2249.7846680        1.2153320312    
 1957-48-357     2224.0000000        2229.2377930       -5.2377929688    
 1957-55-353     2183.0000000        2208.0588379       -25.058837891    
 1957-60-306     2159.0000000        2191.6948242       -32.694824219    
 1957-66-19      2149.0000000        2195.2238770       -46.223876953    
 1957-71-42      2176.0000000        2212.3505859       -36.350585938    
 1957-71-365     2183.0000000        2214.6096191       -31.609619141    
 2125-48-306     2306.0000000        2313.6315918       -7.6315917969    
 2125-55-321     2297.0000000        2310.1188965       -13.118896484    
 2086-48-274     2286.0000000        2289.0974121       -3.0974121094    
 2086-56-48      2275.0000000        2279.7934570       -4.7934570312    
 2086-61-47      2260.0000000        2260.5932617      -0.59326171875    
 2086-66-26      2236.0000000        2255.1030273       -19.103027344    
 2086-71-14      2266.0000000        2263.1235352        2.8764648438    
 2086-71-365     2276.0000000        2265.9575195        10.042480469    
 2102-26-349     2337.0000000        2348.9028320       -11.902832031    
 2102-48-274     2272.0000000        2284.9582520       -12.958251953    
 2102-55-321     2250.0000000        2277.3894043       -27.389404297    
 2102-60-319     2236.0000000        2256.9548340       -20.954833984    
 2102-66-1       2213.0000000        2247.5253906       -34.525390625    
 2102-71-42      2243.0000000        2256.3479004       -13.347900391    
 2102-71-365     2253.0000000        2258.8483887       -5.8483886719    
 2054-39-31      2277.0000000        2295.3103027       -18.310302734    
 2054-48-357     2251.0000000        2267.7644043       -16.764404297    
 2054-55-349     2217.0000000        2257.5332031       -40.533203125    
 2054-61-3       2190.0000000        2238.2783203       -48.278320312    
 2054-66-40      2178.0000000        2235.9055176       -57.905517578    
 2054-71-42      2206.0000000        2246.4577637       -40.457763672    
 2054-71-365     2214.0000000        2248.6081543       -34.608154297    
 2063-22-69      2354.0000000        2367.1967773       -13.196777344    
 1996-11-86      2369.0000000        2372.8110352       -3.8110351562    
 1997-22-60      2344.0000000        2350.9887695       -6.9887695312    
 1997-32-60      2306.0000000        2318.0776367       -12.077636719    
 1997-55-349     2199.0000000        2241.7800293       -42.780029297    
 1997-65-354     2163.0000000        2227.2255859       -64.225585938    
 1997-71-42      2191.0000000        2239.0876465       -48.087646484    
 1997-71-365     2199.0000000        2241.2788086       -42.278808594    
 1949-48-334     2226.0000000        2248.2453613       -22.245361328    
 1949-56-17      2197.0000000        2235.1279297       -38.127929688    
 1942-56-17      2198.0000000        2232.0800781       -34.080078125    
 1942-61-53      2161.0000000        2213.7675781       -52.767578125    
 1942-66-19      2167.0000000        2224.4519043       -57.451904297    
 1942-71-42      2192.0000000        2237.5449219       -45.544921875    
 1942-71-365     2199.0000000        2239.8330078       -40.833007812    
 1943-33-314     2310.0000000        2293.4965820        16.503417969    
 2078-65-355     2293.0000000        2294.5532227       -1.5532226562    
 2078-71-42      2295.0000000        2300.2504883       -5.2504882812    
 2078-71-365     2311.0000000        2302.5949707        8.4050292969    
 2072-16-364     2386.0000000        2393.5788574       -7.5788574219    
 2072-27-10      2370.0000000        2380.3344727       -10.334472656    
 2030-42-362     2302.0000000        2326.2036133       -24.203613281    
 2030-48-357     2279.0000000        2310.2277832       -31.227783203    
 2030-55-348     2271.0000000        2304.3156738       -33.315673828    
 2030-61-3       2261.0000000        2288.5261230       -27.526123047    
 2030-65-355     2258.0000000        2283.7185059       -25.718505859    
 2030-71-42      2270.0000000        2289.9799805       -19.979980469    
 2030-71-365     2276.0000000        2291.3994141       -15.399414062    
 2082-22-32      2373.0000000        2383.4367676       -10.436767578    
 2081-8-101      2392.0000000        2389.1884766        2.8115234375    
 2081-12-109     2384.0000000        2386.7563477       -2.7563476562    
 2081-22-68      2370.0000000        2376.4985352       -6.4985351562    
 2081-42-364     2318.0000000        2315.9140625        2.0859375000    
 2081-56-18      2301.0000000        2297.4379883        3.5620117188    
 2081-71-13      2288.0000000        2279.9709473        8.0290527344    
 2081-71-365     2286.0000000        2282.9265137        3.0734863281    
 2101-8-51       2389.0000000        2393.4230957       -4.4230957031    
 2101-11-86      2381.0000000        2391.1643066       -10.164306641    
 2101-22-32      2365.0000000        2383.9575195       -18.957519531    
 2101-27-10      2363.0000000        2370.7502441       -7.7502441406    
 1986-27-81      2345.0000000        2348.8500977       -3.8500976562    
 1986-42-362     2280.0000000        2295.2939453       -15.293945312    
 1986-48-334     2249.0000000        2268.3300781       -19.330078125    
 1986-55-321     2221.0000000        2259.6567383       -38.656738281    
 1986-61-47      2189.0000000        2241.2121582       -52.212158203    
 1986-66-32      2184.0000000        2247.0537109       -63.053710938    
 1986-71-14      2211.0000000        2256.8913574       -45.891357422    
 1986-71-42      2210.0000000        2257.0620117       -47.062011719    
 1986-71-365     2216.0000000        2258.9123535       -42.912353516    
 1986-71-365     2216.0000000        2258.9123535       -42.912353516    
 1956-32-83      2331.0000000        2336.0649414       -5.0649414062    
 1956-37-34      2320.0000000        2314.6982422        5.3017578125    
 1948-48-274     2256.0000000        2279.0202637       -23.020263672    
 2117-8-182      2421.0000000        2435.9165039       -14.916503906    
 2093-66-26      2423.0000000        2354.5412598        68.458740234    
 2071-16-364     2400.0000000        2398.2211914        1.7788085938    
 2053-56-33      2294.0000000        2326.2009277       -32.200927734    
 2053-65-355     2269.0000000        2298.8913574       -29.891357422    
 2053-71-43      2283.0000000        2303.4121094       -20.412109375    
 2053-71-365     2293.0000000        2305.1530762       -12.153076172    
 2046-61-3       2256.0000000        2311.4233398       -55.423339844    
 2046-65-355     2242.0000000        2300.9472656       -58.947265625    
 2046-71-49      2264.0000000        2305.5815430       -41.581542969    
 2046-71-365     2270.0000000        2306.4084473       -36.408447266    
 2029-66-45      2227.0000000        2290.5324707       -63.532470703    
 2029-71-43      2250.0000000        2296.0151367       -46.015136719    
 2029-71-365     2255.0000000        2296.8510742       -41.851074219    
 2026-71-43      2248.0000000        2300.7038574       -52.703857422    
 2026-71-365     2253.0000000        2301.3181152       -48.318115234    
 2028-71-43      2251.0000000        2300.7768555       -49.776855469    
 2028-71-365     2256.0000000        2301.5229492       -45.522949219    
 2048-56-33      2303.0000000        2333.2192383       -30.219238281    
 2048-65-355     2301.0000000        2311.1633301       -10.163330078    
 2048-71-49      2296.0000000        2317.1047363       -21.104736328    
 2048-71-365     2315.0000000        2319.1933594       -4.1933593750    
 2049-55-347     2298.0000000        2328.5957031       -30.595703125    
 2049-65-355     2294.0000000        2306.9892578       -12.989257812    
 2049-71-43      2294.0000000        2312.8876953       -18.887695312    
 2049-71-365     2308.0000000        2314.9294434       -6.9294433594    
 1995-22-69      2376.0000000        2389.0205078       -13.020507812    
 1995-26-280     2360.0000000        2375.3647461       -15.364746094    
 1995-42-355     2298.0000000        2329.4533691       -31.453369141    
 1995-48-357     2272.0000000        2309.3508301       -37.350830078    
 1995-56-17      2243.0000000        2300.3107910       -57.310791016    
 1995-61-3       2216.0000000        2287.8728027       -71.872802734    
 1995-65-355     2209.0000000        2285.6450195       -76.645019531    
 1995-71-43      2234.0000000        2291.9672852       -57.967285156    
 1995-71-365     2238.0000000        2292.8007812       -54.800781250    
 1947-22-79      2368.0000000        2379.9934082       -11.993408203    
 1947-26-349     2357.0000000        2364.7087402       -7.7087402344    
 1947-32-73      2330.0000000        2349.5908203       -19.590820312    
 1947-39-31      2300.0000000        2326.4741211       -26.474121094    
 1947-48-355     2258.0000000        2287.4409180       -29.440917969    
 1947-55-348     2229.0000000        2276.6289062       -47.628906250    
 1947-61-3       2202.0000000        2265.0490723       -63.049072266    
 1947-66-1       2200.0000000        2269.8271484       -69.827148438    
 1947-71-43      2220.0000000        2277.7207031       -57.720703125    
 1947-71-365     2224.0000000        2278.9843750       -54.984375000    
 1985-56-25      2240.0000000        2305.5886230       -65.588623047    
 1985-66-33      2212.0000000        2291.7812500       -79.781250000    
 1985-71-42      2234.0000000        2298.5603027       -64.560302734    
 2017-42-363     2298.0000000        2326.1896973       -28.189697266    
 2017-48-337     2272.0000000        2304.3916016       -32.391601562    
 2017-56-24      2232.0000000        2295.6013184       -63.601318359    
 2017-61-55      2217.0000000        2282.1616211       -65.161621094    
 2017-66-24      2211.0000000        2283.0485840       -72.048583984    
 2017-71-42      2234.0000000        2290.1079102       -56.107910156    
 1941-16-364     2401.0000000        2413.7370605       -12.737060547    
 2339-1-365      2477.0000000        2485.2392578       -8.2392578125    
 2339-12-113     2470.0000000        2490.2485352       -20.248535156    
 2339-22-74      2475.0000000        2492.7602539       -17.760253906    
 2435-11-80      2546.0000000        2550.1352539       -4.1352539062    
 2435-22-72      2542.0000000        2554.9384766       -12.938476562    
 2443-48-336     2547.0000000        2570.5903320       -23.590332031    
 2443-56-20      2553.0000000        2568.0207520       -15.020751953    
 2443-61-54      2557.0000000        2557.9934082      -0.99340820312    
 2443-66-24      2554.0000000        2543.7592773        10.240722656    
 2443-71-42      2576.0000000        2537.1853027        38.814697266    
 2379-22-74      2529.0000000        2564.6889648       -35.688964844    
 2379-42-356     2540.0000000        2584.2631836       -44.263183594    
 2379-48-336     2543.0000000        2585.6108398       -42.610839844    
 2379-56-19      2542.0000000        2589.3374023       -47.337402344    
 2379-61-55      2541.0000000        2569.5126953       -28.512695312    
 2379-66-27      2540.0000000        2557.2282715       -17.228271484    
 2379-71-42      2542.0000000        2553.8825684       -11.882568359    
 2375-42-357     2537.0000000        2584.3308105       -47.330810547    
 2375-48-350     2537.0000000        2584.9291992       -47.929199219    
 2375-55-348     2533.0000000        2589.6271973       -56.627197266    
 2375-61-48      2534.0000000        2568.2666016       -34.266601562    
 2375-65-350     2532.0000000        2555.0319824       -23.031982422    
 2375-71-55      2534.0000000        2552.9299316       -18.929931641    
 2375-71-365     2537.0000000        2556.1745605       -19.174560547    
 2338-22-74      2520.0000000        2555.1477051       -35.147705078    
 2338-48-355     2525.0000000        2575.1279297       -50.127929688    
 2338-56-5       2527.0000000        2579.9543457       -52.954345703    
 2338-61-48      2518.0000000        2558.0410156       -40.041015625    
 2338-65-350     2512.0000000        2541.4067383       -29.406738281    
 2338-71-55      2514.0000000        2542.6394043       -28.639404297    
 2338-71-365     2515.0000000        2546.3901367       -31.390136719    
 2205-22-74      2581.0000000        2578.0336914        2.9663085938    
 2200-22-85      2588.0000000        2580.2172852        7.7827148438    
 2189-61-55      2613.0000000        2579.7431641        33.256835938    
 2173-61-60      2348.0000000        2548.1320801       -200.13208008    
 2323-22-74      2524.0000000        2551.6740723       -27.674072266    
 2193-48-336     2511.0000000        2520.7763672       -9.7763671875    
 2193-56-19      2510.0000000        2517.3415527       -7.3415527344    
 2193-61-55      2497.0000000        2506.7937012       -9.7937011719    
 2193-66-27      2479.0000000        2488.5437012       -9.5437011719    
 2193-71-42      2474.0000000        2490.3232422       -16.323242188    
 2100-12-113     2520.0000000        2523.0634766       -3.0634765625    
 2100-22-75      2520.0000000        2523.3701172       -3.3701171875    
 2100-42-357     2510.0000000        2509.6584473       0.34155273438    
 2100-48-336     2507.0000000        2513.0507812       -6.0507812500    
 2100-55-347     2504.0000000        2505.6699219       -1.6699218750    
 2100-61-48      2491.0000000        2498.1984863       -7.1984863281    
 2100-65-356     2472.0000000        2481.3349609       -9.3349609375    
 2100-71-42      2467.0000000        2478.3439941       -11.343994141    
 2100-71-54      2466.0000000        2478.2934570       -12.293457031    
 2100-71-365     2471.0000000        2477.2844238       -6.2844238281    
 2324-27-11      2564.0000000        2551.6953125        12.304687500    
 2324-38-91      2574.0000000        2551.0595703        22.940429688    
 2324-42-356     2520.0000000        2560.5373535       -40.537353516    
 2324-56-20      2523.0000000        2562.2099609       -39.209960938    
 2324-66-28      2504.0000000        2531.5961914       -27.596191406    
 2324-71-63      2498.0000000        2532.0783691       -34.078369141    
 2285-22-74      2515.0000000        2539.8496094       -24.849609375    
 2285-32-67      2518.0000000        2545.7199707       -27.719970703    
 2285-38-60      2513.0000000        2543.6232910       -30.623291016    
 2285-71-63      2515.0000000        2522.7570801       -7.7570800781    
 2119-42-357     2493.0000000        2496.2775879       -3.2775878906    
 2119-48-355     2494.0000000        2497.9687500       -3.9687500000    
 2119-55-348     2502.0000000        2494.8146973        7.1853027344    
 2119-61-49      2485.0000000        2480.4604492        4.5395507812    
 2119-71-55      2505.0000000        2458.5629883        46.437011719    
 2119-71-365     2487.0000000        2460.9570312        26.042968750    
 2184-33-274     2510.0000000        2520.4470215       -10.447021484    
 2179-33-26      2473.0000000        2480.1542969       -7.1542968750    
 2179-48-337     2408.0000000        2473.5546875       -65.554687500    
 2179-56-20      2452.0000000        2468.1369629       -16.136962891    
 2179-66-28      2429.0000000        2437.7551270       -8.7551269531    
 2297-42-355     2484.0000000        2515.3249512       -31.324951172    
 2297-48-336     2484.0000000        2516.9279785       -32.927978516    
 2297-56-20      2475.0000000        2513.6650391       -38.665039062    
 2297-61-54      2466.0000000        2501.6252441       -35.625244141    
 2297-66-21      2455.0000000        2485.4531250       -30.453125000    
 2297-71-41      2466.0000000        2480.0427246       -14.042724609    
 2185-42-357     2455.0000000        2460.1865234       -5.1865234375    
 2185-48-355     2455.0000000        2460.2714844       -5.2714843750    
 2185-55-347     2455.0000000        2456.8952637       -1.8952636719    
 2185-66-45      2454.0000000        2424.8032227        29.196777344    
 2185-71-344     2454.0000000        2425.8361816        28.163818359    
 2134-16-361     2462.0000000        2462.5195312      -0.51953125000    
 2134-22-32      2459.0000000        2462.4570312       -3.4570312500    
 2134-27-11      2465.0000000        2460.8200684        4.1799316406    
 2134-48-357     2452.0000000        2443.3657227        8.6342773438    
 2134-55-347     2458.0000000        2438.6166992        19.383300781    
 2134-66-45      2458.0000000        2407.4919434        50.508056641    
 2134-71-344     2450.0000000        2409.4963379        40.503662109    
 2091-61-55      2458.0000000        2420.7724609        37.227539062    
 2091-66-26      2475.0000000        2395.2441406        79.755859375    
 2091-71-55      2473.0000000        2395.8779297        77.122070312    
 2097-48-337     2447.0000000        2385.8681641        61.131835938    
 2097-56-23      2454.0000000        2380.2888184        73.711181641    
 2097-66-26      2455.0000000        2343.7319336        111.26806641    
 2097-71-55      2455.0000000        2346.9152832        108.08471680    
 2068-12-281     2453.0000000        2461.1496582       -8.1496582031    
 2070-48-357     2440.0000000        2442.6081543       -2.6081542969    
 2070-55-348     2456.0000000        2438.4558105        17.544189453    
 2070-60-348     2441.0000000        2428.9399414        12.060058594    
 2070-66-1       2451.0000000        2405.0380859        45.961914062    
 2070-71-365     2433.0000000        2407.3564453        25.643554688    
 2027-39-31      2345.0000000        2404.4494629       -59.449462891    
 2025-66-26      2299.0000000        2356.1713867       -57.171386719    
 2025-71-55      2304.0000000        2359.2050781       -55.205078125    
 2010-32-67      2364.0000000        2397.3120117       -33.312011719    
 1954-32-67      2376.0000000        2432.7800293       -56.780029297    
 1954-48-355     2305.0000000        2400.7976074       -95.797607422    
 1954-55-347     2293.0000000        2395.8220215       -102.82202148    
 1954-66-45      2266.0000000        2372.0700684       -106.07006836    
 1954-71-344     2283.0000000        2373.1096191       -90.109619141    
 1963-32-85      2370.0000000        2421.6955566       -51.695556641    
 1963-42-357     2326.0000000        2395.9536133       -69.953613281    
 1963-48-355     2304.0000000        2381.9101562       -77.910156250    
 1963-55-348     2291.0000000        2380.1921387       -89.192138672    
 1963-61-49      2274.0000000        2372.0280762       -98.028076172    
 1963-65-356     2263.0000000        2360.2687988       -97.268798828    
 1963-71-365     2282.0000000        2361.2822266       -79.282226562    
 2090-27-11      2485.0000000        2479.5595703        5.4404296875    
 2065-66-45      2433.0000000        2417.1433105        15.856689453    
 2065-71-365     2441.0000000        2417.6826172        23.317382812    
 2003-71-365     2445.0000000        2416.0717773        28.928222656    
 1984-42-355     2470.0000000        2456.2451172        13.754882812    
 1984-48-336     2463.0000000        2457.4667969        5.5332031250    
 2116-65-350     2453.0000000        2445.6586914        7.3413085938    
 2047-56-19      2480.0000000        2480.7663574      -0.76635742188    
 2047-61-55      2445.0000000        2464.1423340       -19.142333984    
 2047-66-21      2418.0000000        2441.6208496       -23.620849609    
 2044-56-19      2475.0000000        2472.7583008        2.2416992188    
 2044-61-55      2440.0000000        2455.9321289       -15.932128906    
 2044-66-21      2413.0000000        2433.6342773       -20.634277344    
 2044-71-41      2429.0000000        2431.1159668       -2.1159667969    
 2018-34-212     2503.0000000        2486.3962402        16.603759766    
 2012-1-52       2487.0000000        2484.8164062        2.1835937500    
 2012-42-335     2470.0000000        2466.1650391        3.8349609375    
 2012-48-355     2465.0000000        2469.5693359       -4.5693359375    
 2012-55-348     2470.0000000        2461.9401855        8.0598144531    
 2012-66-1       2417.0000000        2422.6652832       -5.6652832031    
 2012-71-365     2440.0000000        2424.7526855        15.247314453    
 1979-56-23      2478.0000000        2461.3984375        16.601562500    
 1979-61-55      2438.0000000        2445.1091309       -7.1091308594    
 2002-16-361     2488.0000000        2496.6350098       -8.6350097656    
 2002-27-12      2490.0000000        2496.8608398       -6.8608398438    
 1961-56-23      2472.0000000        2452.7395020        19.260498047    
 1961-66-26      2406.0000000        2417.7902832       -11.790283203    
 1961-71-41      2420.0000000        2419.4104004       0.58959960938    
 2080-42-356     2511.0000000        2503.8854980        7.1145019531    
 2080-48-350     2506.0000000        2507.5463867       -1.5463867188    
 2080-55-347     2504.0000000        2500.9633789        3.0366210938    
 2080-66-45      2465.0000000        2473.2111816       -8.2111816406    
 2042-55-347     2498.0000000        2504.1000977       -6.1000976562    
 2042-65-356     2451.0000000        2476.8073730       -25.807373047    
 2042-71-54      2447.0000000        2475.8540039       -28.854003906    
 2042-71-365     2454.0000000        2474.7619629       -20.761962891    
 1964-33-38      2501.0000000        2507.8215332       -6.8215332031    
 1976-42-357     2465.0000000        2481.3461914       -16.346191406    
 1976-48-355     2503.0000000        2485.1320801        17.867919922    
 1976-55-348     2474.0000000        2478.7543945       -4.7543945312    
 1976-60-305     2439.0000000        2464.7636719       -25.763671875    
 1976-66-1       2402.0000000        2441.7692871       -39.769287109    
 1976-71-55      2414.0000000        2443.1010742       -29.101074219    
 1976-71-365     2424.0000000        2443.6577148       -19.657714844    
 1970-42-356     2502.0000000        2481.9980469        20.001953125    
 1970-48-336     2495.0000000        2485.9509277        9.0490722656    
 1970-56-19      2505.0000000        2479.5698242        25.430175781    
 2051-43-1       2503.0000000        2523.1918945       -20.191894531    
 2051-65-356     2450.0000000        2501.1518555       -51.151855469    
 2051-71-54      2447.0000000        2498.6071777       -51.607177734    
 2051-71-365     2451.0000000        2497.6391602       -46.639160156    
 1973-11-214     2529.0000000        2534.8254395       -5.8254394531    
 1969-11-190     2517.0000000        2535.4472656       -18.447265625    
 1946-66-5       2443.0000000        2512.9748535       -69.974853516    
 1946-71-22      2447.0000000        2515.1684570       -68.168457031    
 1946-71-365     2456.0000000        2515.3969727       -59.396972656    
 1967-27-87      2542.0000000        2557.7783203       -15.778320312    
 1967-42-356     2502.0000000        2525.6462402       -23.646240234    
 1967-48-350     2494.0000000        2524.4978027       -30.497802734    
 1967-55-347     2495.0000000        2530.4833984       -35.483398438    
 1967-66-5       2444.0000000        2509.1406250       -65.140625000    
 1967-71-22      2446.0000000        2512.5571289       -66.557128906    
 1967-71-365     2454.0000000        2512.7788086       -58.778808594    
 1939-42-356     2504.0000000        2472.8566895        31.143310547    
 1939-48-350     2495.0000000        2488.7646484        6.2353515625    
 1939-55-347     2497.0000000        2489.5915527        7.4084472656    
 1939-60-356     2480.0000000        2500.0583496       -20.058349609    
 1939-71-22      2448.0000000        2511.8720703       -63.872070312    
 1939-71-365     2457.0000000        2512.0585938       -55.058593750    
 1975-16-361     2581.0000000        2575.3723145        5.6276855469    
 1975-27-12      2580.0000000        2580.1794434      -0.17944335938    
 1945-56-25      2584.0000000        2570.5314941        13.468505859    
 1945-61-54      2569.0000000        2560.1066895        8.8933105469    
 1945-66-27      2577.0000000        2545.9772949        31.022705078    
 1945-71-41      2576.0000000        2546.1584473        29.841552734    
 1711-42-352     1846.0000000        1862.7646484       -16.764648438    
 1711-48-350     1844.0000000        1867.5439453       -23.543945312    
 1711-55-354     1846.0000000        1871.3283691       -25.328369141    
 1711-61-21      1848.0000000        1872.0594482       -24.059448242    
 1711-66-39      1836.0000000        1850.7474365       -14.747436523    
 1711-71-7       1842.0000000        1866.8303223       -24.830322266    
 1711-71-365     1843.0000000        1873.8665771       -30.866577148    
 1555-27-24      1867.0000000        1895.4924316       -28.492431641    
 1555-31-348     1851.0000000        1877.5692139       -26.569213867    
 1555-37-341     1811.0000000        1865.0407715       -54.040771484    
 1555-48-348     1846.0000000        1873.9486084       -27.948608398    
 1555-56-27      1843.0000000        1876.9489746       -33.948974609    
 1555-60-319     1847.0000000        1877.1872559       -30.187255859    
 1555-65-301     1827.0000000        1855.5091553       -28.509155273    
 1555-71-11      1841.0000000        1874.4293213       -33.429321289    
 1555-71-365     1845.0000000        1880.9426270       -35.942626953    
 1428-11-1       1997.0000000        2011.8498535       -14.849853516    
 1428-17-11      1983.0000000        2004.2332764       -21.233276367    
 1428-22-12      1969.0000000        1985.4605713       -16.460571289    
 1428-32-85      1946.0000000        1946.8902588      -0.89025878906    
 1383-1-106      2023.0000000        2027.9465332       -4.9465332031    
 1383-7-337      2024.0000000        2023.0356445       0.96435546875    
 1383-12-361     2025.0000000        2024.7301025       0.26989746094    
 1819-38-13      1884.0000000        1878.7272949        5.2727050781    
 1819-42-352     1885.0000000        1881.2747803        3.7252197266    
 1819-55-354     1873.0000000        1884.8885498       -11.888549805    
 1820-71-12      1977.0000000        1965.0006104        11.999389648    
 1820-71-365     1948.0000000        1961.3267822       -13.326782227    
 1748-17-6       1946.0000000        1958.7819824       -12.781982422    
 1748-21-335     1923.0000000        1931.7855225       -8.7855224609    
 1748-48-348     1881.0000000        1888.7869873       -7.7869873047    
 1748-60-305     1887.0000000        1895.5224609       -8.5224609375    
 1748-66-1       1901.0000000        1884.4332275        16.566772461    
 1748-71-8       1952.0000000        1938.8087158        13.191284180    
 1748-71-365     1953.0000000        1944.1396484        8.8603515625    
 1903-71-365     1926.0000000        1934.8167725       -8.8167724609    
 1862-71-365     1905.0000000        1917.1160889       -12.116088867    
 1861-65-364     1916.0000000        1922.8280029       -6.8280029297    
 1861-71-365     1952.0000000        1951.2707520       0.72924804688    
 1833-71-365     1934.0000000        1909.0026855        24.997314453    
 1770-71-365     1954.0000000        1921.6164551        32.383544922    
 1758-71-365     1924.0000000        1907.1596680        16.840332031    
 1709-22-38      1907.0000000        1921.8818359       -14.881835938    
 1709-42-352     1881.0000000        1882.8386230       -1.8386230469    
 1709-55-354     1871.0000000        1886.1475830       -15.147583008    
 1709-65-344     1908.0000000        1865.8049316        42.195068359    
 1709-71-365     1954.0000000        1919.8524170        34.147583008    
 1700-71-365     1954.0000000        1922.5878906        31.412109375    
 1828-71-365     1954.0000000        1923.5098877        30.490112305    
 1698-71-365     1984.0000000        1944.3540039        39.645996094    
 1883-65-336     1858.0000000        1837.4475098        20.552490234    
 1883-71-365     1882.0000000        1882.3815918      -0.38159179688    
 1838-71-365     1856.0000000        1875.4992676       -19.499267578    
 1805-71-365     1842.0000000        1864.9415283       -22.941528320    
 1702-16-354     1930.0000000        1941.3814697       -11.381469727    
 1702-42-352     1867.0000000        1874.3179932       -7.3179931641    
 1702-48-349     1865.0000000        1877.6174316       -12.617431641    
 1702-55-354     1861.0000000        1879.5227051       -18.522705078    
 1702-61-31      1873.0000000        1882.2410889       -9.2410888672    
 1702-65-344     1835.0000000        1847.7277832       -12.727783203    
 1702-71-365     1869.0000000        1878.3748779       -9.3748779297    
 1704-71-365     1865.0000000        1886.6956787       -21.695678711    
 1829-71-365     1888.0000000        1888.7235107      -0.72351074219    
 1710-17-6       1935.0000000        1943.5117188       -8.5117187500    
 1710-42-352     1874.0000000        1876.6469727       -2.6469726562    
 1710-48-349     1871.0000000        1879.7369385       -8.7369384766    
 1710-55-354     1867.0000000        1881.5122070       -14.512207031    
 1710-61-31      1882.0000000        1886.3107910       -4.3107910156    
 1710-65-344     1849.0000000        1849.5153809      -0.51538085938    
 1710-71-365     1891.0000000        1896.9332275       -5.9332275391    
 1703-71-365     1899.0000000        1884.4837646        14.516235352    
 1663-12-305     1964.0000000        1974.4608154       -10.460815430    
 1663-42-352     1877.0000000        1880.6970215       -3.6970214844    
 1663-48-349     1873.0000000        1883.3375244       -10.337524414    
 1663-55-354     1869.0000000        1884.6938477       -15.693847656    
 1663-61-31      1880.0000000        1888.6623535       -8.6623535156    
 1663-65-338     1844.0000000        1854.2459717       -10.245971680    
 1663-71-365     1891.0000000        1900.2135010       -9.2135009766    
 1667-71-365     1888.0000000        1898.0709229       -10.070922852    
 1686-71-365     1980.0000000        1942.1220703        37.877929688    
 1653-71-365     2007.0000000        1966.7242432        40.275756836    
 1634-71-365     1985.0000000        1942.8258057        42.174194336    
 1637-71-365     1997.0000000        1954.8432617        42.156738281    
 1635-71-365     1936.0000000        1926.0833740        9.9166259766    
 1584-17-6       1957.0000000        1970.8386230       -13.838623047    
 1584-22-38      1934.0000000        1945.4261475       -11.426147461    
 1584-27-27      1919.0000000        1923.3873291       -4.3873291016    
 1584-32-85      1896.0000000        1907.9373779       -11.937377930    
 1584-37-34      1893.0000000        1898.3455811       -5.3455810547    
 1584-42-352     1904.0000000        1901.8830566        2.1169433594    
 1584-48-348     1898.0000000        1902.4473877       -4.4473876953    
 1584-55-354     1891.0000000        1901.9019775       -10.901977539    
 1584-60-323     1899.0000000        1904.4421387       -5.4421386719    
 1584-65-344     1892.0000000        1883.5274658        8.4725341797    
 1584-71-365     1958.0000000        1936.8732910        21.126708984    
 1585-71-365     1953.0000000        1939.2504883        13.749511719    
 1592-71-365     1979.0000000        1971.9458008        7.0541992188    
 1591-71-365     1992.0000000        1979.0124512        12.987548828    
 1590-71-365     1994.0000000        1958.1844482        35.815551758    
 1650-71-365     1967.0000000        1974.3211670       -7.3211669922    
 1684-48-275     1902.0000000        1912.9083252       -10.908325195    
 1684-66-20      1899.0000000        1896.1707764        2.8292236328    
 1685-48-275     1902.0000000        1912.9083252       -10.908325195    
 1685-66-20      1896.0000000        1896.1707764      -0.17077636719    
 1496-21-355     1982.0000000        2006.5446777       -24.544677734    
 1496-27-27      1971.0000000        1986.0651855       -15.065185547    
 1496-32-85      1959.0000000        1970.6079102       -11.607910156    
 1496-36-91      1953.0000000        1965.2232666       -12.223266602    
 1496-56-19      1930.0000000        1946.4400635       -16.440063477    
 1491-56-19      1932.0000000        1946.6262207       -14.626220703    
 1501-16-309     2004.0000000        2040.5800781       -36.580078125    
 1497-48-300     1940.0000000        1949.2095947       -9.2095947266    
 1497-55-318     1931.0000000        1942.2440186       -11.244018555    
 1497-60-313     1916.0000000        1930.5047607       -14.504760742    
 1497-65-364     1898.0000000        1917.9338379       -19.933837891    
 1497-71-350     1941.0000000        1943.6643066       -2.6643066406    
 1498-48-300     1941.0000000        1949.2258301       -8.2258300781    
 1498-55-318     1930.0000000        1942.2982178       -12.298217773    
 1498-60-313     1917.0000000        1930.7170410       -13.717041016    
 1498-65-364     1898.0000000        1918.0876465       -20.087646484    
 1498-71-350     1942.0000000        1942.3482666      -0.34826660156    
 1442-36-1       1957.0000000        1949.6136475        7.3863525391    
 1442-42-349     1941.0000000        1942.0710449       -1.0710449219    
 1442-48-349     1933.0000000        1938.1641846       -5.1641845703    
 1442-55-353     1923.0000000        1932.0219727       -9.0219726562    
 1442-61-21      1907.0000000        1917.5672607       -10.567260742    
 1473-10-213     2021.0000000        2046.0443115       -25.044311523    
 1407-22-38      1991.0000000        1991.2548828      -0.25488281250    
 1407-42-349     1957.0000000        1964.6425781       -7.6425781250    
 1407-48-349     1949.0000000        1957.2885742       -8.2885742188    
 1407-55-353     1937.0000000        1947.8425293       -10.842529297    
 1407-61-21      1916.0000000        1923.8001709       -7.8001708984    
 1407-66-34      1900.0000000        1915.1369629       -15.136962891    
 1407-71-365     1990.0000000        1957.0026855        32.997314453    
 1412-71-365     1993.0000000        1955.1601562        37.839843750    
 1393-38-335     1974.0000000        1967.7026367        6.2973632812    
 1393-42-349     1957.0000000        1957.8663330      -0.86633300781    
 1393-48-349     1950.0000000        1953.4827881       -3.4827880859    
 1393-55-353     1938.0000000        1943.3463135       -5.3463134766    
 1393-71-365     2034.0000000        1980.7391357        53.260864258    
 1376-36-78      1988.0000000        1977.6665039        10.333496094    
 1376-48-349     1957.0000000        1962.9719238       -5.9719238281    
 1376-61-21      1921.0000000        1926.4249268       -5.4249267578    
 1376-66-34      1905.0000000        1918.5832520       -13.583251953    
 1376-71-56      1990.0000000        1958.7642822        31.235717773    
 1376-71-365     2019.0000000        1978.9359131        40.064086914    
 1361-71-362     1995.0000000        1968.0947266        26.905273438    
 1362-71-362     1995.0000000        1968.0947266        26.905273438    
 1421-71-362     2025.0000000        2039.6324463       -14.632446289    
 1403-66-34      1900.0000000        1913.6352539       -13.635253906    
 1403-71-56      1997.0000000        1957.0325928        39.967407227    
 1403-71-365     2031.0000000        1978.2120361        52.787963867    
 1388-71-362     2044.0000000        2028.5258789        15.474121094    
 1364-17-12      2001.0000000        2026.3314209       -25.331420898    
 1364-38-335     1980.0000000        1978.7816162        1.2183837891    
 1364-42-349     1961.0000000        1966.6625977       -5.6625976562    
 1364-55-353     1942.0000000        1951.3917236       -9.3917236328    
 1364-66-34      1904.0000000        1916.3212891       -12.321289062    
 1364-71-365     2054.0000000        2054.4206543      -0.42065429688    
 1365-17-12      2006.0000000        2027.1756592       -21.175659180    
 1365-22-6       1999.0000000        2002.5948486       -3.5948486328    
 1365-27-27      1992.0000000        1985.7833252        6.2166748047    
 1365-32-85      1986.0000000        1975.8129883        10.187011719    
 1365-37-17      1983.0000000        1972.9002686        10.099731445    
 1365-42-349     1965.0000000        1966.2446289       -1.2446289062    
 1365-48-349     1959.0000000        1962.4924316       -3.4924316406    
 1365-55-353     1948.0000000        1953.1533203       -5.1533203125    
 1365-60-364     1925.0000000        1934.0002441       -9.0002441406    
 1365-66-1       1907.0000000        1921.6810303       -14.681030273    
 1365-71-365     2045.0000000        2006.0747070        38.925292969    
 1335-71-362     2054.0000000        2062.6799316       -8.6799316406    
 1313-36-114     1987.0000000        1984.8675537        2.1324462891    
 1313-42-349     1974.0000000        1981.0937500       -7.0937500000    
 1313-48-349     1966.0000000        1976.2158203       -10.215820312    
 1313-55-353     1953.0000000        1964.6219482       -11.621948242    
 1313-61-21      1922.0000000        1939.0600586       -17.060058594    
 1313-66-13      1906.0000000        1929.5720215       -23.572021484    
 1266-17-12      2022.0000000        2046.7619629       -24.761962891    
 1266-38-335     2003.0000000        1999.8925781        3.1074218750    
 1266-42-349     1987.0000000        1991.8330078       -4.8330078125    
 1266-48-349     1980.0000000        1986.5979004       -6.5979003906    
 1266-56-3       1967.0000000        1974.4342041       -7.4342041016    
 1266-61-21      1938.0000000        1951.5756836       -13.575683594    
 1266-66-12      1922.0000000        1940.2652588       -18.265258789    
 1266-71-56      2000.0000000        1988.1926270        11.807373047    
 1266-71-365     2050.0000000        2027.3115234        22.688476562    
 1258-71-362     2050.0000000        2013.9611816        36.038818359    
 1265-17-12      2015.0000000        2045.7525635       -30.752563477    
 1265-38-335     2003.0000000        2000.7396240        2.2603759766    
 1265-42-349     1982.0000000        1991.6075439       -9.6075439453    
 1265-48-349     1975.0000000        1986.3878174       -11.387817383    
 1265-55-353     1961.0000000        1972.8531494       -11.853149414    
 1265-66-34      1917.0000000        1937.0601807       -20.060180664    
 1265-71-56      1998.0000000        1986.0505371        11.949462891    
 1265-71-365     2040.0000000        2012.3782959        27.621704102    
 1336-17-12      2021.0000000        2041.3287354       -20.328735352    
 1336-38-335     1988.0000000        1986.3598633        1.6401367188    
 1336-42-349     1974.0000000        1974.7086182      -0.70861816406    
 1336-48-349     1965.0000000        1971.0000000       -6.0000000000    
 1336-55-353     1959.0000000        1959.1314697      -0.13146972656    
 1336-71-40      1955.0000000        1949.2596436        5.7403564453    
 1336-71-365     1999.0000000        1970.1539307        28.846069336    
 1337-42-349     1965.0000000        1973.3314209       -8.3314208984    
 1337-55-353     1947.0000000        1954.9012451       -7.9012451172    
 1337-66-27      1901.0000000        1918.1116943       -17.111694336    
 1337-71-365     2033.0000000        2029.4294434        3.5705566406    
 1340-36-38      1989.0000000        1980.2883301        8.7116699219    
 1340-42-349     1969.0000000        1973.9112549       -4.9112548828    
 1340-48-349     1961.0000000        1968.7575684       -7.7575683594    
 1340-55-353     1948.0000000        1956.6512451       -8.6512451172    
 1340-66-10      1902.0000000        1922.4870605       -20.487060547    
 1340-71-56      2011.0000000        1970.7950439        40.204956055    
 1340-71-365     2033.0000000        1996.8861084        36.113891602    
 1264-38-335     2000.0000000        2001.2579346       -1.2579345703    
 1264-42-349     1981.0000000        1991.6574707       -10.657470703    
 1264-71-70      1982.0000000        1973.0568848        8.9431152344    
 1264-71-365     2018.0000000        1996.8793945        21.120605469    
 1257-66-33      1916.0000000        1939.0457764       -23.045776367    
 1257-71-56      1959.0000000        1964.6334229       -5.6334228516    
 1257-71-365     1994.0000000        1983.0541992        10.945800781    
 1371-56-31      1966.0000000        1979.8022461       -13.802246094    
 1371-66-56      1937.0000000        1953.0832520       -16.083251953    
 1371-71-50      1934.0000000        1953.1341553       -19.134155273    
 1371-71-365     1940.0000000        1956.8785400       -16.878540039    
 1370-34-198     2015.0000000        2010.4710693        4.5289306641    
 1370-56-31      1974.0000000        1982.0803223       -8.0803222656    
 1370-66-56      1951.0000000        1955.7786865       -4.7786865234    
 1370-71-50      1943.0000000        1953.5590820       -10.559082031    
 1370-71-365     1945.0000000        1956.2341309       -11.234130859    
 1849-12-32      2295.0000000        2304.0905762       -9.0905761719    
 1849-17-34      2282.0000000        2294.8779297       -12.877929688    
 1849-22-1       2276.0000000        2281.9758301       -5.9758300781    
 1847-48-362     2218.0000000        2221.9624023       -3.9624023438    
 1847-56-34      2197.0000000        2204.8903809       -7.8903808594    
 1847-61-3       2185.0000000        2190.7187500       -5.7187500000    
 1847-66-1       2178.0000000        2179.6196289       -1.6196289062    
 1847-71-56      2177.0000000        2180.0881348       -3.0881347656    
 1847-71-365     2179.0000000        2180.8840332       -1.8840332031    
 1742-1-365      2295.0000000        2302.9558105       -7.9558105469    
 1741-1-365      2294.0000000        2304.2033691       -10.203369141    
 1766-1-365      2333.0000000        2306.0974121        26.902587891    
 1848-56-34      2194.0000000        2207.1733398       -13.173339844    
 1848-65-336     2176.0000000        2175.9277344       7.22656250000E-02
 1848-71-365     2172.0000000        2171.5895996       0.41040039062    
 1901-2-36       2292.0000000        2281.6147461        10.385253906    
 1912-1-365      2284.0000000        2278.2949219        5.7050781250    
 1929-1-365      2283.0000000        2277.3278809        5.6721191406    
 1902-1-365      2282.0000000        2279.2412109        2.7587890625    
 1872-71-68      2168.0000000        2163.3547363        4.6452636719    
 1872-71-365     2169.0000000        2163.2565918        5.7434082031    
 1871-56-34      2185.0000000        2199.8735352       -14.873535156    
 1832-17-37      2250.0000000        2266.5463867       -16.546386719    
 1832-22-1       2238.0000000        2256.1699219       -18.169921875    
 1832-32-49      2224.0000000        2239.4536133       -15.453613281    
 1832-42-362     2198.0000000        2217.7619629       -19.761962891    
 1832-48-362     2207.0000000        2215.2260742       -8.2260742188    
 1832-56-34      2189.0000000        2202.2993164       -13.299316406    
 1832-61-3       2179.0000000        2185.8059082       -6.8059082031    
 1832-71-21      2168.0000000        2165.6794434        2.3205566406    
 1832-71-365     2168.0000000        2165.1831055        2.8168945312    
 1767-27-40      2263.0000000        2254.6708984        8.3291015625    
 1767-42-363     2207.0000000        2224.7875977       -17.787597656    
 1767-56-34      2199.0000000        2211.4729004       -12.472900391    
 1818-65-336     2171.0000000        2174.9455566       -3.9455566406    
 1804-71-76      2169.0000000        2169.8229980      -0.82299804688    
 1804-71-365     2168.0000000        2169.8010254       -1.8010253906    
 1793-42-362     2203.0000000        2221.9150391       -18.915039062    
 1793-48-334     2211.0000000        2221.9545898       -10.954589844    
 1793-56-34      2196.0000000        2209.3933105       -13.393310547    
 1793-65-336     2179.0000000        2178.1245117       0.87548828125    
 1793-71-21      2174.0000000        2172.2985840        1.7014160156    
 1793-71-365     2173.0000000        2172.1054688       0.89453125000    
 1891-1-365      2278.0000000        2276.6718750        1.3281250000    
 1891-11-38      2260.0000000        2266.7241211       -6.7241210938    
 1891-17-37      2237.0000000        2255.1770020       -18.177001953    
 1690-32-32      2242.0000000        2260.7849121       -18.784912109    
 1690-34-32      2237.0000000        2254.4914551       -17.491455078    
 1690-42-362     2216.0000000        2237.2360840       -21.236083984    
 1690-48-362     2222.0000000        2235.1838379       -13.183837891    
 1690-56-34      2207.0000000        2222.9904785       -15.990478516    
 1690-61-3       2187.0000000        2205.4248047       -18.424804688    
 1690-71-21      2185.0000000        2184.7106934       0.28930664062    
 1690-71-365     2186.0000000        2185.6381836       0.36181640625    
 1697-56-34      2201.0000000        2218.9782715       -17.978271484    
 1697-65-336     2184.0000000        2186.7424316       -2.7424316406    
 1697-71-21      2181.0000000        2180.8513184       0.14868164062    
 1697-71-365     2181.0000000        2181.1235352      -0.12353515625    
 1638-22-30      2262.0000000        2287.2885742       -25.288574219    
 1638-27-48      2252.0000000        2276.0668945       -24.066894531    
 1638-32-49      2248.0000000        2269.9147949       -21.914794922    
 1638-37-49      2231.0000000        2253.3803711       -22.380371094    
 1638-42-363     2220.0000000        2246.4379883       -26.437988281    
 1642-1-365      2316.0000000        2321.2900391       -5.2900390625    
 1642-8-48       2310.0000000        2318.2563477       -8.2563476562    
 1626-1-365      2317.0000000        2328.6127930       -11.612792969    
 1625-26-349     2281.0000000        2286.2033691       -5.2033691406    
 1625-32-49      2274.0000000        2279.5578613       -5.5578613281    
 1625-42-362     2244.0000000        2252.5634766       -8.5634765625    
 1625-48-362     2241.0000000        2246.7202148       -5.7202148438    
 1625-56-34      2226.0000000        2230.4938965       -4.4938964844    
 1625-61-3       2218.0000000        2213.6772461        4.3227539062    
 1508-12-54      2335.0000000        2329.8784180        5.1215820312    
 1508-17-33      2334.0000000        2326.2145996        7.7854003906    
 1508-22-26      2330.0000000        2312.7529297        17.247070312    
 1508-27-15      2332.0000000        2302.1162109        29.883789062    
 1508-32-49      2321.0000000        2296.9260254        24.073974609    
 1508-43-5       2280.0000000        2271.7807617        8.2192382812    
 1508-48-364     2290.0000000        2272.7810059        17.218994141    
 1508-56-34      2275.0000000        2257.4621582        17.537841797    
 1508-61-3       2245.0000000        2233.2353516        11.764648438    
 1508-71-49      2245.0000000        2210.4799805        34.520019531    
 1508-71-365     2249.0000000        2210.3957520        38.604248047    
 1479-43-5       2283.0000000        2284.4655762       -1.4655761719    
 1479-48-364     2295.0000000        2290.1340332        4.8659667969    
 1479-56-34      2280.0000000        2274.0114746        5.9885253906    
 1479-60-363     2247.0000000        2244.1857910        2.8142089844    
 1479-71-70      2249.0000000        2220.3461914        28.653808594    
 1479-71-365     2251.0000000        2220.1293945        30.870605469    
 1462-42-364     2289.0000000        2289.3820801      -0.38208007812    
 1462-48-334     2293.0000000        2296.8740234       -3.8740234375    
 1462-56-16      2279.0000000        2280.1711426       -1.1711425781    
 1468-1-365      2357.0000000        2354.2897949        2.7102050781    
 1471-11-278     2346.0000000        2343.9750977        2.0249023438    
 1471-17-33      2344.0000000        2343.1157227       0.88427734375    
 1471-22-26      2339.0000000        2326.4082031        12.591796875    
 1471-26-349     2333.0000000        2317.0332031        15.966796875    
 1471-43-5       2284.0000000        2285.6437988       -1.6437988281    
 1471-48-364     2296.0000000        2292.1210938        3.8789062500    
 1471-65-336     2241.0000000        2230.9121094        10.087890625    
 1471-71-70      2248.0000000        2222.7355957        25.264404297    
 1471-71-365     2250.0000000        2222.7736816        27.226318359    
 1461-12-54      2348.0000000        2348.7404785      -0.74047851562    
 1461-17-44      2340.0000000        2344.1538086       -4.1538085938    
 1461-22-30      2330.0000000        2331.8847656       -1.8847656250    
 1461-27-59      2319.0000000        2318.7773438       0.22265625000    
 1461-42-363     2295.0000000        2288.5769043        6.4230957031    
 1461-48-336     2311.0000000        2288.2009277        22.799072266    
 1461-56-34      2299.0000000        2270.6994629        28.300537109    
 1461-60-363     2271.0000000        2247.4123535        23.587646484    
 1461-66-59      2274.0000000        2231.3801270        42.619873047    
 1461-71-70      2283.0000000        2225.3703613        57.629638672    
 1461-71-365     2287.0000000        2224.8654785        62.134521484    
 1387-42-362     2292.0000000        2308.0705566       -16.070556641    
 1387-49-2       2310.0000000        2317.2099609       -7.2099609375    
 1387-56-33      2280.0000000        2297.0119629       -17.011962891    
 1387-60-363     2244.0000000        2259.9667969       -15.966796875    
 1387-66-59      2240.0000000        2240.8061523      -0.80615234375    
 1387-71-70      2252.0000000        2233.5078125        18.492187500    
 1387-71-365     2256.0000000        2232.7343750        23.265625000    
 1391-17-41      2368.0000000        2362.2763672        5.7236328125    
 1391-22-31      2358.0000000        2350.3713379        7.6286621094    
 1391-42-362     2310.0000000        2306.0161133        3.9838867188    
 1391-48-338     2314.0000000        2311.0537109        2.9462890625    
 1391-56-16      2281.0000000        2292.7126465       -11.712646484    
 1391-61-59      2260.0000000        2261.6669922       -1.6669921875    
 1391-66-27      2277.0000000        2244.8510742        32.148925781    
 1391-71-56      2263.0000000        2237.4606934        25.539306641    
 1386-17-41      2369.0000000        2362.6140137        6.3859863281    
 1386-22-31      2358.0000000        2350.6887207        7.3112792969    
 1386-42-362     2292.0000000        2306.3332520       -14.333251953    
 1386-48-337     2298.0000000        2311.6523438       -13.652343750    
 1386-56-16      2296.0000000        2293.2114258        2.7885742188    
 1398-48-335     2302.0000000        2312.1154785       -10.115478516    
 1401-2-1        2373.0000000        2369.5944824        3.4055175781    
 1401-12-53      2358.0000000        2358.0815430      -8.15429687500E-02
 1401-17-60      2362.0000000        2362.2807617      -0.28076171875    
 1401-22-26      2353.0000000        2344.6376953        8.3623046875    
 1427-17-39      2358.0000000        2359.1462402       -1.1462402344    
 1427-22-31      2350.0000000        2341.0358887        8.9641113281    
 1427-42-362     2293.0000000        2301.4353027       -8.4353027344    
 1427-48-364     2305.0000000        2311.4958496       -6.4958496094    
 1427-56-33      2285.0000000        2292.8955078       -7.8955078125    
 1378-42-364     2285.0000000        2311.9780273       -26.978027344    
 1400-1-32       2376.0000000        2369.9306641        6.0693359375    
 1400-12-53      2361.0000000        2358.4365234        2.5634765625    
 1400-17-60      2364.0000000        2362.5534668        1.4465332031    
 1400-22-26      2355.0000000        2344.9267578        10.073242188    
 1400-27-48      2349.0000000        2338.3918457        10.608154297    
 1400-36-3       2310.0000000        2310.7478027      -0.74780273438    
 1400-43-5       2292.0000000        2304.5068359       -12.506835938    
 1400-48-364     2307.0000000        2316.0097656       -9.0097656250    
 1400-56-33      2284.0000000        2296.3012695       -12.301269531    
 1400-60-363     2248.0000000        2258.8193359       -10.819335938    
 1400-71-365     2259.0000000        2232.2221680        26.777832031    
 1405-7-308      2360.0000000        2365.0561523       -5.0561523438    
 1405-10-34      2359.0000000        2360.7917480       -1.7917480469    
 1405-43-5       2287.0000000        2305.7126465       -18.712646484    
 1405-48-364     2301.0000000        2316.9650879       -15.965087891    
 1405-56-33      2278.0000000        2297.0998535       -19.099853516    
 1405-66-13      2235.0000000        2240.5761719       -5.5761718750    
 1405-71-365     2252.0000000        2233.3669434        18.633056641    
 1349-17-41      2357.0000000        2379.4003906       -22.400390625    
 1349-22-30      2345.0000000        2359.6113281       -14.611328125    
 1329-1-274      2381.0000000        2387.4550781       -6.4550781250    
 1329-17-41      2368.0000000        2382.8073730       -14.807373047    
 1329-22-31      2357.0000000        2363.0510254       -6.0510253906    
 1329-42-364     2285.0000000        2325.1899414       -40.189941406    
 1329-56-16      2275.0000000        2316.9179688       -41.917968750    
 1329-66-26      2245.0000000        2250.8850098       -5.8850097656    
 1282-1-277      2407.0000000        2391.6440430        15.355957031    
 1283-1-309      2387.0000000        2392.5114746       -5.5114746094    
 1283-6-340      2379.0000000        2389.4201660       -10.420166016    
 1283-11-350     2372.0000000        2381.1108398       -9.1108398438    
 1283-16-301     2369.0000000        2387.1076660       -18.107666016    
 1283-22-30      2361.0000000        2369.2590332       -8.2590332031    
 1283-27-10      2352.0000000        2363.4230957       -11.423095703    
 1283-35-345     2312.0000000        2332.2978516       -20.297851562    
 1274-6-288      2376.0000000        2388.9233398       -12.923339844    
 1274-12-54      2369.0000000        2381.2512207       -12.251220703    
 1274-17-41      2373.0000000        2386.8583984       -13.858398438    
 1274-22-30      2360.0000000        2369.0207520       -9.0207519531    
 1356-43-1       2285.0000000        2314.2138672       -29.213867188    
 1347-66-49      2241.0000000        2237.3044434        3.6955566406    
 1345-55-350     2281.0000000        2302.7255859       -21.725585938    
 1345-61-33      2244.0000000        2256.4377441       -12.437744141    
 1345-66-49      2241.0000000        2237.5327148        3.4672851562    
 1345-71-68      2252.0000000        2231.7526855        20.247314453    
 1345-71-365     2257.0000000        2231.5449219        25.455078125    
 1321-12-57      2369.0000000        2376.5869141       -7.5869140625    
 1321-17-41      2374.0000000        2378.6289062       -4.6289062500    
 1321-22-27      2361.0000000        2363.3757324       -2.3757324219    
 1321-27-51      2354.0000000        2355.7995605       -1.7995605469    
 1360-56-34      2271.0000000        2304.3923340       -33.392333984    
 1360-60-362     2240.0000000        2260.0063477       -20.006347656    
 1360-65-348     2229.0000000        2241.1525879       -12.152587891    
 1360-71-48      2243.0000000        2235.8339844        7.1660156250    
 1360-71-365     2248.0000000        2235.8352051        12.164794922    
 1328-1-277      2386.0000000        2386.6228027      -0.62280273438    
 1328-6-295      2377.0000000        2380.5861816       -3.5861816406    
 1306-11-41      2364.0000000        2378.2124023       -14.212402344    
 1306-17-41      2368.0000000        2380.7165527       -12.716552734    
 1306-22-27      2356.0000000        2363.3867188       -7.3867187500    
 1306-43-5       2286.0000000        2319.9047852       -33.904785156    
 1306-48-364     2304.0000000        2332.1921387       -28.192138672    
 1306-56-33      2272.0000000        2305.1867676       -33.186767578    
 1306-60-363     2238.0000000        2252.6584473       -14.658447266    
 1306-66-6       2234.0000000        2234.5502930      -0.55029296875    
 1306-71-60      2246.0000000        2229.1259766        16.874023438    
 1306-71-365     2252.0000000        2230.2253418        21.774658203    
 1307-1-274      2386.0000000        2387.5300293       -1.5300292969    
 1307-11-41      2369.0000000        2378.2143555       -9.2143554688    
 1307-17-41      2375.0000000        2381.1198730       -6.1198730469    
 1307-22-27      2362.0000000        2362.6335449      -0.63354492188    
 1307-26-349     2350.0000000        2358.4360352       -8.4360351562    
 1307-48-364     2309.0000000        2333.5502930       -24.550292969    
 1307-56-33      2279.0000000        2309.0568848       -30.056884766    
 1307-71-60      2253.0000000        2236.1425781        16.857421875    
 1307-71-365     2258.0000000        2236.8679199        21.132080078    
 1304-1-274      2381.0000000        2388.7990723       -7.7990722656    
 1304-11-41      2365.0000000        2379.6176758       -14.617675781    
 1304-17-32      2370.0000000        2382.6379395       -12.637939453    
 1304-22-27      2354.0000000        2364.3937988       -10.393798828    
 1304-26-302     2340.0000000        2359.7839355       -19.783935547    
 1304-48-364     2301.0000000        2335.5053711       -34.505371094    
 1304-56-33      2270.0000000        2310.6352539       -40.635253906    
 1304-60-356     2235.0000000        2260.7446289       -25.744628906    
 1304-71-60      2244.0000000        2237.0002441        6.9997558594    
 1281-12-54      2373.0000000        2379.8508301       -6.8508300781    
 1281-17-41      2377.0000000        2385.4980469       -8.4980468750    
 1281-22-30      2365.0000000        2367.6220703       -2.6220703125    
 1281-32-50      2343.0000000        2353.1748047       -10.174804688    
 1281-37-49      2314.0000000        2324.3664551       -10.366455078    
 1292-1-274      2389.0000000        2390.0351562       -1.0351562500    
 1292-17-46      2376.0000000        2383.6508789       -7.6508789062    
 1292-22-27      2363.0000000        2366.2363281       -3.2363281250    
 1292-26-349     2351.0000000        2361.8029785       -10.802978516    
 1292-43-5       2291.0000000        2322.6181641       -31.618164062    
 1292-48-364     2311.0000000        2337.6845703       -26.684570312    
 1272-1-60       2392.0000000        2393.0122070       -1.0122070312    
 1272-7-176      2374.0000000        2385.6213379       -11.621337891    
 1272-60-363     2245.0000000        2261.9958496       -16.995849609    
 1272-65-348     2241.0000000        2246.4318848       -5.4318847656    
 1272-71-365     2258.0000000        2239.4477539        18.552246094    
 1298-42-362     2292.0000000        2321.1169434       -29.116943359    
 1298-56-10      2279.0000000        2305.5688477       -26.568847656    
 1298-60-363     2244.0000000        2250.0910645       -6.0910644531    
 1298-66-13      2240.0000000        2233.5522461        6.4477539062    
 1298-71-365     2257.0000000        2225.7253418        31.274658203    
 1299-56-10      2280.0000000        2304.6682129       -24.668212891    
 1299-66-13      2240.0000000        2225.4128418        14.587158203    
 1299-71-365     2255.0000000        2220.2846680        34.715332031    
 1294-43-5       2283.0000000        2321.8041992       -38.804199219    
 1294-48-364     2302.0000000        2334.5668945       -32.566894531    
 1294-56-10      2272.0000000        2306.9301758       -34.930175781    
 1294-60-363     2237.0000000        2245.0561523       -8.0561523438    
 1294-66-13      2233.0000000        2228.8867188        4.1132812500    
 1294-71-365     2251.0000000        2223.1970215        27.802978516    
 1296-71-60      2249.0000000        2222.4702148        26.529785156    
 1288-56-10      2281.0000000        2306.9602051       -25.960205078    
 1288-66-13      2242.0000000        2227.6867676        14.313232422    
 1288-71-41      2251.0000000        2218.3723145        32.627685547    
 1288-71-365     2257.0000000        2221.8090820        35.190917969    
 1285-60-361     2244.0000000        2246.9890137       -2.9890136719    
 1285-71-365     2257.0000000        2222.8547363        34.145263672    
 1291-60-361     2243.0000000        2244.7497559       -1.7497558594    
 1291-71-365     2257.0000000        2220.9082031        36.091796875    
 1287-60-361     2245.0000000        2245.1801758      -0.18017578125    
 1287-71-365     2258.0000000        2221.2731934        36.726806641    
 1342-71-62      2342.0000000        2242.6613770        99.338623047    
 1342-71-365     2341.0000000        2241.6982422        99.301757812    
 1346-11-40      2376.0000000        2375.7629395       0.23706054688    
 1346-17-44      2376.0000000        2374.7224121        1.2775878906    
 1346-22-27      2364.0000000        2362.3293457        1.6706542969    
 1346-27-59      2357.0000000        2351.1762695        5.8237304688    
 1346-32-50      2357.0000000        2342.1640625        14.835937500    
 1346-42-362     2298.0000000        2317.3793945       -19.379394531    
 1346-48-357     2313.0000000        2326.3134766       -13.313476562    
 1346-56-32      2285.0000000        2303.5700684       -18.570068359    
 1346-60-363     2302.0000000        2264.4567871        37.543212891    
 1346-71-62      2262.0000000        2237.9165039        24.083496094    
 1346-71-365     2268.0000000        2237.1313477        30.868652344    
 1351-71-62      2310.0000000        2238.4431152        71.556884766    
 1351-71-365     2310.0000000        2237.6105957        72.389404297    
 1305-12-57      2382.0000000        2382.1601562      -0.16015625000    
 1305-17-46      2384.0000000        2381.6809082        2.3190917969    
 1305-22-27      2366.0000000        2369.4636230       -3.4636230469    
 1305-42-362     2294.0000000        2322.0205078       -28.020507812    
 1305-48-357     2312.0000000        2333.5322266       -21.532226562    
 1305-55-357     2285.0000000        2308.0063477       -23.006347656    
 1305-60-342     2251.0000000        2259.0039062       -8.0039062500    
 1305-66-59      2248.0000000        2242.8015137        5.1984863281    
 1305-71-20      2255.0000000        2232.4201660        22.579833984    
 1305-71-365     2261.0000000        2232.9572754        28.042724609    
 1286-1-91       2419.0000000        2395.3486328        23.651367188    
 1284-60-361     2246.0000000        2247.9460449       -1.9460449219    
 1284-65-356     2240.0000000        2233.0383301        6.9616699219    
 1284-71-365     2258.0000000        2223.9841309        34.015869141    
 1271-42-362     2294.0000000        2326.0981445       -32.098144531    
 1271-56-10      2284.0000000        2311.7031250       -27.703125000    
 1271-60-363     2250.0000000        2255.6979980       -5.6979980469    
 1271-66-13      2244.0000000        2241.1379395        2.8620605469    
 1271-71-62      2255.0000000        2228.9353027        26.064697266    
 1271-71-365     2259.0000000        2230.5976562        28.402343750    
 1293-56-10      2282.0000000        2305.3242188       -23.324218750    
 1293-66-13      2243.0000000        2233.2978516        9.7021484375    
 1293-71-47      2251.0000000        2221.9108887        29.089111328    
 1293-71-365     2257.0000000        2223.9980469        33.001953125    
 1898-10-252     2397.0000000        2413.3906250       -16.390625000    
 1873-10-252     2394.0000000        2409.0976562       -15.097656250    
 1763-10-252     2409.0000000        2415.6003418       -6.6003417969    
 1762-7-161      2417.0000000        2424.4516602       -7.4516601562    
 1762-22-60      2383.0000000        2391.8286133       -8.8286132812    
 1776-42-355     2284.0000000        2320.4458008       -36.445800781    
 1776-56-27      2238.0000000        2288.6130371       -50.613037109    
 1776-66-54      2214.0000000        2281.5659180       -67.565917969    
 1776-71-64      2224.0000000        2288.8422852       -64.842285156    
 1776-71-365     2228.0000000        2289.4379883       -61.437988281    
 1775-42-355     2284.0000000        2321.2272949       -37.227294922    
 1775-56-27      2239.0000000        2288.0075684       -49.007568359    
 1775-66-54      2213.0000000        2281.1062012       -68.106201172    
 1775-71-64      2224.0000000        2288.6992188       -64.699218750    
 1775-71-365     2228.0000000        2289.3105469       -61.310546875    
 1905-10-252     2395.0000000        2400.8081055       -5.8081054688    
 1875-10-252     2391.0000000        2395.4321289       -4.4321289062    
 1877-22-79      2360.0000000        2369.7470703       -9.7470703125    
 1877-42-356     2273.0000000        2297.8562012       -24.856201172    
 1877-48-355     2238.0000000        2264.8120117       -26.812011719    
 1877-66-59      2185.0000000        2252.6181641       -67.618164062    
 1877-71-64      2205.0000000        2262.9069824       -57.906982422    
 1877-71-365     2210.0000000        2264.1049805       -54.104980469    
 1878-42-356     2273.0000000        2298.5751953       -25.575195312    
 1878-48-356     2239.0000000        2261.8674316       -22.867431641    
 1878-56-10      2207.0000000        2252.2067871       -45.206787109    
 1878-61-26      2176.0000000        2236.5895996       -60.589599609    
 1878-66-59      2186.0000000        2253.1049805       -67.104980469    
 1878-71-64      2207.0000000        2263.6442871       -56.644287109    
 1878-71-365     2211.0000000        2264.8391113       -53.839111328    
 1926-42-363     2274.0000000        2288.7363281       -14.736328125    
 1886-22-79      2353.0000000        2361.8178711       -8.8178710938    
 1886-26-349     2341.0000000        2347.5058594       -6.5058593750    
 1886-42-362     2271.0000000        2290.8046875       -19.804687500    
 1886-48-357     2237.0000000        2258.4091797       -21.409179688    
 1886-56-24      2201.0000000        2247.0395508       -46.039550781    
 1886-66-1       2173.0000000        2241.3681641       -68.368164062    
 1886-71-62      2198.0000000        2253.3669434       -55.366943359    
 1886-71-365     2203.0000000        2255.0654297       -52.065429688    
 1852-10-255     2390.0000000        2393.5368652       -3.5368652344    
 1822-10-255     2384.0000000        2389.0495605       -5.0495605469    
 1786-66-19      2167.0000000        2238.2431641       -71.243164062    
 1786-71-33      2188.0000000        2251.9995117       -63.999511719    
 1786-71-365     2192.0000000        2253.4145508       -61.414550781    
 1851-10-252     2391.0000000        2401.9816895       -10.981689453    
 1791-12-116     2390.0000000        2396.8129883       -6.8129882812    
 1791-22-79      2356.0000000        2368.5649414       -12.564941406    
 1791-26-294     2344.0000000        2354.8933105       -10.893310547    
 1791-42-356     2270.0000000        2295.7189941       -25.718994141    
 1791-48-356     2235.0000000        2257.9064941       -22.906494141    
 1791-66-56      2187.0000000        2250.1347656       -63.134765625    
 1791-71-33      2203.0000000        2261.2727051       -58.272705078    
 1791-71-365     2208.0000000        2262.1118164       -54.111816406    
 1785-42-356     2271.0000000        2295.8745117       -24.874511719    
 1785-48-356     2235.0000000        2258.2441406       -23.244140625    
 1785-56-10      2212.0000000        2248.7568359       -36.756835938    
 1785-61-26      2173.0000000        2231.2109375       -58.210937500    
 1785-66-56      2186.0000000        2250.2775879       -64.277587891    
 1785-71-33      2203.0000000        2261.3798828       -58.379882812    
 1785-71-365     2208.0000000        2262.2614746       -54.261474609    
 1928-10-256     2381.0000000        2380.6496582       0.35034179688    
 1879-12-111     2376.0000000        2379.5305176       -3.5305175781    
 1879-22-79      2350.0000000        2353.2148438       -3.2148437500    
 1879-42-362     2268.0000000        2280.5888672       -12.588867188    
 1879-48-357     2235.0000000        2250.1103516       -15.110351562    
 1879-55-353     2199.0000000        2233.1379395       -34.137939453    
 1879-60-313     2201.0000000        2213.2805176       -12.280517578    
 1879-71-49      2192.0000000        2243.0170898       -51.017089844    
 1879-71-365     2198.0000000        2245.1293945       -47.129394531    
 1824-10-256     2376.0000000        2373.2517090        2.7482910156    
 1811-7-156      2379.0000000        2374.1335449        4.8664550781    
 1811-22-79      2341.0000000        2338.8298340        2.1701660156    
 1811-32-32      2314.0000000        2309.9807129        4.0192871094    
 1811-48-357     2232.0000000        2239.6003418       -7.6003417969    
 1811-55-354     2190.0000000        2216.5793457       -26.579345703    
 1811-60-349     2149.0000000        2194.1352539       -45.135253906    
 1811-65-355     2161.0000000        2210.1687012       -49.168701172    
 1811-71-68      2187.0000000        2225.9104004       -38.910400391    
 1811-71-365     2193.0000000        2228.2941895       -35.294189453    
 1777-10-256     2378.0000000        2373.3198242        4.6801757812    
 1823-42-362     2268.0000000        2276.0375977       -8.0375976562    
 1823-48-357     2235.0000000        2246.5285645       -11.528564453    
 1823-56-32      2194.0000000        2223.9160156       -29.916015625    
 1823-60-313     2165.0000000        2205.5195312       -40.519531250    
 1823-66-19      2171.0000000        2224.7221680       -53.722167969    
 1823-71-49      2194.0000000        2239.4331055       -45.433105469    
 1823-71-365     2200.0000000        2241.7846680       -41.784667969    
 1744-10-256     2381.0000000        2378.3571777        2.6428222656    
 1907-12-116     2361.0000000        2361.4230957      -0.42309570312    
 1907-22-79      2337.0000000        2337.7900391      -0.79003906250    
 1907-42-362     2259.0000000        2262.2873535       -3.2873535156    
 1907-48-357     2229.0000000        2238.4274902       -9.4274902344    
 1907-71-365     2189.0000000        2226.1594238       -37.159423828    
 1906-42-362     2259.0000000        2262.3967285       -3.3967285156    
 1906-48-357     2230.0000000        2238.7397461       -8.7397460938    
 1906-55-356     2188.0000000        2219.2912598       -31.291259766    
 1906-60-341     2164.0000000        2199.4619141       -35.461914062    
 1906-65-355     2153.0000000        2208.7451172       -55.745117188    
 1906-71-32      2182.0000000        2224.1623535       -42.162353516    
 1906-71-365     2189.0000000        2226.7524414       -37.752441406    
 1899-66-19      2159.0000000        2196.2534180       -37.253417969    
 1899-71-32      2181.0000000        2213.6845703       -32.684570312    
 1899-71-365     2188.0000000        2216.4431152       -28.443115234    
 1778-12-261     2348.0000000        2355.5725098       -7.5725097656    
 1764-10-257     2360.0000000        2358.1147461        1.8852539062    
 1765-42-362     2257.0000000        2255.0795898        1.9204101562    
 1765-48-357     2229.0000000        2231.3637695       -2.3637695312    
 1765-55-354     2179.0000000        2205.9392090       -26.939208984    
 1765-60-349     2153.0000000        2186.9106445       -33.910644531    
 1765-66-56      2160.0000000        2194.7077637       -34.707763672    
 1765-71-32      2181.0000000        2212.6940918       -31.694091797    
 1765-71-365     2188.0000000        2214.9719238       -26.971923828    
 1816-10-153     2360.0000000        2364.7883301       -4.7883300781    
 1825-42-335     2255.0000000        2261.9218750       -6.9218750000    
 1825-48-357     2225.0000000        2236.3820801       -11.382080078    
 1825-56-27      2180.0000000        2210.8200684       -30.820068359    
 1825-61-42      2142.0000000        2190.1684570       -48.168457031    
 1825-66-19      2156.0000000        2205.1733398       -49.173339844    
 1825-71-32      2178.0000000        2221.1416016       -43.141601562    
 1825-71-365     2185.0000000        2223.7797852       -38.779785156    
 1888-22-79      2317.0000000        2318.2258301       -1.2258300781    
 1888-32-32      2295.0000000        2288.9030762        6.0969238281    
 1888-42-362     2247.0000000        2241.6345215        5.3654785156    
 1888-48-357     2222.0000000        2221.9042969       9.57031250000E-02
 1888-65-355     2147.0000000        2183.4257812       -36.425781250    
 1888-71-32      2173.0000000        2202.4382324       -29.438232422    
 1888-71-365     2179.0000000        2204.5405273       -25.540527344    
 1890-42-362     2247.0000000        2240.8344727        6.1655273438    
 1890-48-357     2222.0000000        2221.5417480       0.45825195312    
 1890-55-350     2180.0000000        2197.4387207       -17.438720703    
 1890-61-42      2153.0000000        2180.4545898       -27.454589844    
 1890-66-19      2152.0000000        2183.5222168       -31.522216797    
 1890-71-32      2176.0000000        2202.2106934       -26.210693359    
 1890-71-365     2180.0000000        2204.3320312       -24.332031250    
 1812-12-91      2340.0000000        2343.2705078       -3.2705078125    
 1812-22-62      2314.0000000        2317.4743652       -3.4743652344    
 1812-32-60      2298.0000000        2290.4597168        7.5402832031    
 1827-42-362     2250.0000000        2246.4787598        3.5212402344    
 1827-48-357     2224.0000000        2224.8388672      -0.83886718750    
 1827-56-25      2183.0000000        2199.8828125       -16.882812500    
 1827-61-42      2153.0000000        2182.1467285       -29.146728516    
 1827-66-19      2155.0000000        2185.4462891       -30.446289062    
 1827-71-32      2178.0000000        2203.5983887       -25.598388672    
 1827-71-365     2184.0000000        2205.7868652       -21.786865234    
 1779-12-109     2333.0000000        2340.6101074       -7.6101074219    
 1779-17-80      2325.0000000        2331.2297363       -6.2297363281    
 1779-22-79      2314.0000000        2314.6743164      -0.67431640625    
 1779-42-362     2247.0000000        2244.1274414        2.8725585938    
 1870-42-364     2234.0000000        2236.4597168       -2.4597167969    
 1817-56-20      2185.0000000        2199.9584961       -14.958496094    
 1817-66-34      2159.0000000        2180.6137695       -21.613769531    
 1747-71-60      2179.0000000        2190.5708008       -11.570800781    
 1722-1-152      2342.0000000        2343.2395020       -1.2395019531    
 1722-22-80      2297.0000000        2306.2155762       -9.2155761719    
 1722-26-349     2292.0000000        2295.7160645       -3.7160644531    
 1722-32-32      2282.0000000        2283.7551270       -1.7551269531    
 1722-42-362     2237.0000000        2244.9001465       -7.9001464844    
 1722-48-357     2221.0000000        2228.4125977       -7.4125976562    
 1722-56-24      2192.0000000        2206.3647461       -14.364746094    
 1722-61-11      2180.0000000        2191.7529297       -11.752929688    
 1722-66-59      2175.0000000        2187.3432617       -12.343261719    
 1722-71-56      2178.0000000        2196.3654785       -18.365478516    
 1722-71-365     2182.0000000        2198.5100098       -16.510009766    
 1668-56-20      2191.0000000        2209.3972168       -18.397216797    
 1666-66-34      2190.0000000        2190.6113281      -0.61132812500    
 1718-56-20      2187.0000000        2207.5456543       -20.545654297    
 1718-61-59      2146.0000000        2194.1008301       -48.100830078    
 1718-66-34      2164.0000000        2186.7246094       -22.724609375    
 1662-56-20      2204.0000000        2213.1999512       -9.1999511719    
 1664-66-34      2183.0000000        2190.4680176       -7.4680175781    
 1664-71-60      2192.0000000        2192.8637695      -0.86376953125    
 1641-66-34      2201.0000000        2193.3410645        7.6589355469    
 1619-1-365      2394.0000000        2350.3588867        43.641113281    
 1619-8-57       2377.0000000        2342.6818848        34.318115234    
 1619-12-59      2359.0000000        2335.8784180        23.121582031    
 1619-17-87      2354.0000000        2325.7482910        28.251708984    
 1619-22-79      2342.0000000        2310.5869141        31.413085938    
 1619-42-335     2296.0000000        2253.3903809        42.609619141    
 1608-35-121     2274.0000000        2276.5808105       -2.5808105469    
 1608-42-362     2247.0000000        2254.9658203       -7.9658203125    
 1608-48-357     2236.0000000        2241.1337891       -5.1337890625    
 1608-55-340     2209.0000000        2218.9995117       -9.9995117188    
 1608-60-348     2202.0000000        2205.4072266       -3.4072265625    
 1608-66-5       2200.0000000        2198.5078125        1.4921875000    
 1608-71-1       2203.0000000        2203.2045898      -0.20458984375    
 1608-71-365     2204.0000000        2205.1706543       -1.1706542969    
 1714-56-33      2195.0000000        2204.6435547       -9.6435546875    
 1714-71-29      2178.0000000        2203.2055664       -25.205566406    
 1714-71-365     2182.0000000        2205.4907227       -23.490722656    
 1715-66-59      2166.0000000        2188.4616699       -22.461669922    
 1715-71-29      2178.0000000        2203.2055664       -25.205566406    
 1715-71-365     2183.0000000        2205.4907227       -22.490722656    
 1716-66-59      2166.0000000        2188.2451172       -22.245117188    
 1716-71-29      2177.0000000        2201.9672852       -24.967285156    
 1716-71-365     2181.0000000        2204.2783203       -23.278320312    
 1717-71-32      2177.0000000        2202.0683594       -25.068359375    
 1717-71-365     2181.0000000        2204.2929688       -23.292968750    
 1689-71-29      2180.0000000        2202.5522461       -22.552246094    
 1689-71-365     2183.0000000        2204.8828125       -21.882812500    
 1696-66-59      2170.0000000        2189.5187988       -19.518798828    
 1696-71-29      2180.0000000        2202.5522461       -22.552246094    
 1696-71-365     2183.0000000        2204.8828125       -21.882812500    
 1673-2-274      2365.0000000        2361.1882324        3.8117675781    
 1673-8-57       2356.0000000        2354.5688477        1.4311523438    
 1673-12-59      2341.0000000        2348.6267090       -7.6267089844    
 1673-17-87      2331.0000000        2338.5329590       -7.5329589844    
 1673-22-79      2324.0000000        2322.0529785        1.9470214844    
 1673-42-363     2258.0000000        2254.0825195        3.9174804688    
 1673-48-357     2234.0000000        2233.7001953       0.29980468750    
 1673-56-24      2195.0000000        2208.6433105       -13.643310547    
 1723-1-32       2370.0000000        2352.9467773        17.053222656    
 1723-12-59      2331.0000000        2340.3723145       -9.3723144531    
 1723-17-87      2319.0000000        2330.7009277       -11.700927734    
 1723-22-80      2306.0000000        2315.2050781       -9.2050781250    
 1723-42-363     2250.0000000        2248.6943359        1.3056640625    
 1723-48-357     2231.0000000        2228.1125488        2.8874511719    
 1723-56-24      2195.0000000        2204.5285645       -9.5285644531    
 1723-60-348     2174.0000000        2188.7155762       -14.715576172    
 1723-66-59      2169.0000000        2188.0773926       -19.077392578    
 1723-71-32      2180.0000000        2201.7229004       -21.722900391    
 1723-71-365     2185.0000000        2203.9550781       -18.955078125    
 1724-1-365      2346.0000000        2349.6877441       -3.6877441406    
 1724-12-59      2327.0000000        2337.0581055       -10.058105469    
 1724-17-82      2317.0000000        2327.4550781       -10.455078125    
 1724-22-80      2304.0000000        2312.3400879       -8.3400878906    
 1724-42-363     2247.0000000        2247.3530273      -0.35302734375    
 1724-48-357     2230.0000000        2228.4311523        1.5688476562    
 1724-56-20      2196.0000000        2205.4482422       -9.4482421875    
 1724-60-348     2180.0000000        2190.3264160       -10.326416016    
 1724-66-59      2175.0000000        2187.8688965       -12.868896484    
 1724-71-56      2182.0000000        2199.8208008       -17.820800781    
 1724-71-365     2186.0000000        2201.9157715       -15.915771484    
 1694-17-82      2345.0000000        2353.4526367       -8.4526367188    
 1694-22-80      2332.0000000        2333.6289062       -1.6289062500    
 1699-42-363     2258.0000000        2264.7067871       -6.7067871094    
 1699-48-357     2227.0000000        2238.2250977       -11.225097656    
 1699-55-356     2177.0000000        2211.9526367       -34.952636719    
 1699-60-349     2146.0000000        2189.5717773       -43.571777344    
 1699-66-56      2161.0000000        2206.9162598       -45.916259766    
 1699-71-32      2177.0000000        2221.8044434       -44.804443359    
 1699-71-365     2185.0000000        2224.3449707       -39.344970703    
 1695-7-158      2368.0000000        2367.7280273       0.27197265625    
 1695-42-363     2263.0000000        2261.9042969        1.0957031250    
 1695-48-357     2234.0000000        2236.5786133       -2.5786132812    
 1695-56-24      2185.0000000        2209.5148926       -24.514892578    
 1695-60-336     2192.0000000        2189.5109863        2.4890136719    
 1695-66-56      2168.0000000        2203.0190430       -35.019042969    
 1695-71-56      2184.0000000        2218.4528809       -34.452880859    
 1695-71-365     2190.0000000        2220.7453613       -30.745361328    
 1658-2-217      2372.0000000        2366.0659180        5.9340820312    
 1658-8-58       2367.0000000        2359.6853027        7.3146972656    
 1658-12-59      2352.0000000        2353.2502441       -1.2502441406    
 1658-17-87      2338.0000000        2342.1853027       -4.1853027344    
 1658-22-81      2328.0000000        2325.1621094        2.8378906250    
 1652-42-363     2266.0000000        2260.0273438        5.9726562500    
 1652-48-357     2241.0000000        2237.7561035        3.2438964844    
 1652-56-24      2202.0000000        2212.8271484       -10.827148438    
 1652-60-349     2177.0000000        2194.1562500       -17.156250000    
 1652-66-1       2177.0000000        2199.3259277       -22.325927734    
 1652-71-76      2192.0000000        2213.7666016       -21.766601562    
 1652-71-365     2196.0000000        2215.8427734       -19.842773438    
 1633-12-96      2371.0000000        2365.0634766        5.9365234375    
 1633-17-89      2356.0000000        2354.5319824        1.4680175781    
 1633-42-355     2266.0000000        2269.8996582       -3.8996582031    
 1713-61-54      2157.0000000        2201.0732422       -44.073242188    
 1713-66-56      2183.0000000        2226.0961914       -43.096191406    
 1713-71-64      2202.0000000        2241.4912109       -39.491210938    
 1713-71-365     2207.0000000        2243.2277832       -36.227783203    
 1670-42-357     2269.0000000        2275.9648438       -6.9648437500    
 1656-22-80      2344.0000000        2342.9956055        1.0043945312    
 1656-31-351     2319.0000000        2317.9665527        1.0334472656    
 1656-37-343     2281.0000000        2289.5942383       -8.5942382812    
 1656-55-360     2198.0000000        2224.2536621       -26.253662109    
 1656-61-42      2155.0000000        2195.3457031       -40.345703125    
 1656-66-56      2179.0000000        2221.3417969       -42.341796875    
 1656-71-33      2195.0000000        2236.0827637       -41.082763672    
 1656-71-365     2200.0000000        2238.2902832       -38.290283203    
 1655-17-89      2365.0000000        2369.5544434       -4.5544433594    
 1655-22-80      2348.0000000        2345.1813965        2.8186035156    
 1655-42-355     2271.0000000        2277.6176758       -6.6176757812    
 1655-48-364     2236.0000000        2244.2080078       -8.2080078125    
 1651-42-362     2268.0000000        2271.2622070       -3.2622070312    
 1651-48-355     2239.0000000        2243.0319824       -4.0319824219    
 1657-60-349     2162.0000000        2195.5971680       -33.597167969    
 1657-66-56      2177.0000000        2215.1013184       -38.101318359    
 1657-71-32      2193.0000000        2228.7258301       -35.725830078    
 1657-71-365     2198.0000000        2231.0041504       -33.004150391    
 1614-12-96      2380.0000000        2380.6386719      -0.63867187500    
 1614-17-89      2369.0000000        2368.3391113       0.66088867188    
 1614-22-80      2347.0000000        2345.0244141        1.9755859375    
 1615-17-89      2366.0000000        2368.0234375       -2.0234375000    
 1615-22-80      2347.0000000        2344.8166504        2.1833496094    
 1615-42-356     2273.0000000        2280.4069824       -7.4069824219    
 1615-48-355     2242.0000000        2249.3378906       -7.3378906250    
 1615-56-20      2207.0000000        2228.3205566       -21.320556641    
 1615-61-31      2163.0000000        2200.5893555       -37.589355469    
 1615-66-56      2186.0000000        2224.0234375       -38.023437500    
 1615-71-33      2200.0000000        2237.4624023       -37.462402344    
 1615-71-365     2204.0000000        2239.3806152       -35.380615234    
 1611-42-356     2272.0000000        2281.7224121       -9.7224121094    
 1611-48-355     2241.0000000        2250.4858398       -9.4858398438    
 1611-56-20      2207.0000000        2228.5070801       -21.507080078    
 1611-61-31      2163.0000000        2200.9548340       -37.954833984    
 1611-66-56      2185.0000000        2225.6333008       -40.633300781    
 1611-71-33      2199.0000000        2238.9494629       -39.949462891    
 1611-71-365     2204.0000000        2240.6875000       -36.687500000    
 1708-42-357     2272.0000000        2293.4809570       -21.480957031    
 1708-48-341     2223.0000000        2256.4531250       -33.453125000    
 1693-17-87      2379.0000000        2386.7697754       -7.7697753906    
 1693-22-79      2362.0000000        2367.8708496       -5.8708496094    
 1693-42-356     2271.0000000        2290.8007812       -19.800781250    
 1693-48-356     2236.0000000        2253.7631836       -17.763183594    
 1687-42-356     2273.0000000        2294.0231934       -21.023193359    
 1687-48-356     2238.0000000        2257.4277344       -19.427734375    
 1687-56-27      2207.0000000        2248.2380371       -41.238037109    
 1687-61-26      2181.0000000        2229.3554688       -48.355468750    
 1687-66-56      2192.0000000        2250.5200195       -58.520019531    
 1687-71-33      2207.0000000        2261.4599609       -54.459960938    
 1687-71-365     2212.0000000        2262.0600586       -50.060058594    
 1681-17-87      2373.0000000        2378.0380859       -5.0380859375    
 1681-22-79      2354.0000000        2358.0205078       -4.0205078125    
 1681-26-294     2343.0000000        2346.5661621       -3.5661621094    
 1681-48-356     2235.0000000        2246.6979980       -11.697998047    
 1681-66-56      2184.0000000        2236.2868652       -52.286865234    
 1681-71-33      2201.0000000        2250.0634766       -49.063476562    
 1681-71-365     2202.0000000        2251.1911621       -49.191162109    
 1688-42-356     2269.0000000        2284.9951172       -15.995117188    
 1688-48-356     2235.0000000        2250.0097656       -15.009765625    
 1688-55-364     2210.0000000        2237.0021973       -27.002197266    
 1688-61-21      2182.0000000        2210.6657715       -28.665771484    
 1688-66-56      2184.0000000        2236.3017578       -52.301757812    
 1688-71-33      2201.0000000        2249.8466797       -48.846679688    
 1688-71-365     2203.0000000        2251.0876465       -48.087646484    
 1596-12-96      2385.0000000        2389.8352051       -4.8352050781    
 1596-22-81      2353.0000000        2354.5585938       -1.5585937500    
 1596-42-356     2271.0000000        2279.0939941       -8.0939941406    
 1621-42-356     2275.0000000        2282.8854980       -7.8854980469    
 1621-48-356     2242.0000000        2250.7370605       -8.7370605469    
 1621-56-6       2216.0000000        2236.0009766       -20.000976562    
 1621-61-42      2165.0000000        2208.4528809       -43.452880859    
 1621-65-355     2189.0000000        2235.4101562       -46.410156250    
 1621-71-33      2206.0000000        2248.4287109       -42.428710938    
 1621-71-365     2209.0000000        2249.4597168       -40.459716797    
 1605-11-45      2405.0000000        2392.7341309        12.265869141    
 1630-17-87      2382.0000000        2387.8469238       -5.8469238281    
 1630-22-79      2366.0000000        2366.8542480      -0.85424804688    
 1630-42-355     2277.0000000        2286.2580566       -9.2580566406    
 1630-48-356     2242.0000000        2257.3884277       -15.388427734    
 1630-66-59      2198.0000000        2249.9045410       -51.904541016    
 1630-71-33      2210.0000000        2260.6401367       -50.640136719    
 1630-71-365     2211.0000000        2260.8571777       -49.857177734    
 1629-42-355     2274.0000000        2294.5263672       -20.526367188    
 1629-48-356     2242.0000000        2259.6542969       -17.654296875    
 1629-56-9       2225.0000000        2249.4328613       -24.432861328    
 1629-61-21      2198.0000000        2227.1831055       -29.183105469    
 1629-66-59      2199.0000000        2250.7036133       -51.703613281    
 1629-71-33      2211.0000000        2261.1501465       -50.150146484    
 1629-71-365     2213.0000000        2261.5595703       -48.559570312    
 1683-22-79      2379.0000000        2387.2819824       -8.2819824219    
 1683-26-349     2360.0000000        2371.8439941       -11.843994141    
 1683-42-355     2286.0000000        2310.6464844       -24.646484375    
 1683-48-355     2256.0000000        2281.3767090       -25.376708984    
 1683-56-27      2237.0000000        2281.4074707       -44.407470703    
 1683-60-349     2213.0000000        2267.3811035       -54.381103516    
 1683-66-54      2213.0000000        2274.7832031       -61.783203125    
 1679-42-355     2286.0000000        2314.4812012       -28.481201172    
 1679-48-355     2251.0000000        2281.3767090       -30.376708984    
 1679-56-27      2238.0000000        2281.4074707       -43.407470703    
 1679-61-11      2213.0000000        2267.2326660       -54.232666016    
 1680-66-54      2212.0000000        2274.7595215       -62.759521484    
 1654-42-355     2280.0000000        2303.1564941       -23.156494141    
 1654-48-355     2244.0000000        2267.3967285       -23.396728516    
 1654-56-27      2225.0000000        2265.7380371       -40.738037109    
 1654-61-14      2198.0000000        2248.5666504       -50.566650391    
 1654-66-54      2206.0000000        2262.7365723       -56.736572266    
 1654-71-64      2218.0000000        2271.9982910       -53.998291016    
 1654-71-365     2221.0000000        2272.2148438       -51.214843750    
 1660-42-355     2279.0000000        2303.1564941       -24.156494141    
 1660-48-355     2243.0000000        2267.3967285       -24.396728516    
 1660-56-27      2224.0000000        2265.7380371       -41.738037109    
 1660-60-349     2198.0000000        2248.6672363       -50.667236328    
 1660-66-54      2205.0000000        2262.7365723       -57.736572266    
 1660-71-64      2218.0000000        2271.9982910       -53.998291016    
 1660-71-365     2221.0000000        2272.2148438       -51.214843750    
 1554-22-81      2379.0000000        2388.2231445       -9.2231445312    
 1554-27-15      2357.0000000        2363.1557617       -6.1557617188    
 1554-32-60      2340.0000000        2357.6628418       -17.662841797    
 1554-56-26      2254.0000000        2285.2763672       -31.276367188    
 1554-61-12      2230.0000000        2267.0908203       -37.090820312    
 1554-66-59      2227.0000000        2277.1276855       -50.127685547    
 1554-71-54      2233.0000000        2284.2834473       -51.283447266    
 1554-71-365     2236.0000000        2284.5568848       -48.556884766    
 1504-22-60      2375.0000000        2392.2011719       -17.201171875    
 1548-7-158      2406.0000000        2411.8745117       -5.8745117188    
 1548-11-82      2402.0000000        2405.8427734       -3.8427734375    
 1548-17-87      2380.0000000        2388.8371582       -8.8371582031    
 1548-22-81      2365.0000000        2367.1364746       -2.1364746094    
 1548-26-278     2343.0000000        2352.3256836       -9.3256835938    
 1550-48-365     2255.0000000        2273.4116211       -18.411621094    
 1550-56-6       2225.0000000        2259.0954590       -34.095458984    
 1550-61-27      2193.0000000        2230.2023926       -37.202392578    
 1550-66-28      2206.0000000        2250.6950684       -44.695068359    
 1550-71-13      2215.0000000        2261.6967773       -46.696777344    
 1550-71-365     2219.0000000        2261.6284180       -42.628417969    
 1559-66-46      2194.0000000        2240.4008789       -46.400878906    
 1559-71-365     2207.0000000        2251.9360352       -44.936035156    
 1569-32-60      2330.0000000        2336.4138184       -6.4138183594    
 1569-37-89      2305.0000000        2312.2392578       -7.2392578125    
 1569-42-356     2281.0000000        2294.6730957       -13.673095703    
 1569-48-355     2252.0000000        2266.9611816       -14.961181641    
 1569-56-26      2222.0000000        2252.6887207       -30.688720703    
 1569-61-24      2180.0000000        2222.6381836       -42.638183594    
 1569-66-28      2199.0000000        2246.2851562       -47.285156250    
 1569-71-365     2215.0000000        2257.4780273       -42.478027344    
 1540-17-86      2377.0000000        2387.0517578       -10.051757812    
 1540-22-81      2362.0000000        2364.7416992       -2.7416992188    
 1540-26-279     2342.0000000        2350.6689453       -8.6689453125    
 1540-42-355     2284.0000000        2302.2434082       -18.243408203    
 1540-48-355     2257.0000000        2275.0446777       -18.044677734    
 1540-56-26      2232.0000000        2259.5595703       -27.559570312    
 1540-60-350     2200.0000000        2229.9887695       -29.988769531    
 1540-66-28      2205.0000000        2250.4255371       -45.425537109    
 1540-71-365     2218.0000000        2261.0534668       -43.053466797    
 1526-17-87      2378.0000000        2387.8244629       -9.8244628906    
 1526-22-81      2363.0000000        2365.6706543       -2.6706542969    
 1526-26-349     2384.0000000        2350.6979980        33.302001953    
 1526-32-60      2329.0000000        2341.7834473       -12.783447266    
 1526-42-356     2289.0000000        2306.1760254       -17.176025391    
 1526-48-355     2269.0000000        2278.3327637       -9.3327636719    
 1526-56-26      2243.0000000        2262.3928223       -19.392822266    
 1526-60-350     2211.0000000        2234.4592285       -23.459228516    
 1526-65-355     2210.0000000        2251.2812500       -41.281250000    
 1526-71-362     2219.0000000        2261.2944336       -42.294433594    
 1518-42-357     2288.0000000        2307.7080078       -19.708007812    
 1517-71-53      2226.0000000        2272.7136230       -46.713623047    
 1517-71-365     2228.0000000        2272.9753418       -44.975341797    
 1564-56-26      2224.0000000        2242.1274414       -18.127441406    
 1564-71-365     2211.0000000        2247.2121582       -36.212158203    
 1552-12-59      2387.0000000        2379.5307617        7.4692382812    
 1552-17-85      2369.0000000        2364.8015137        4.1984863281    
 1552-22-80      2348.0000000        2342.1528320        5.8471679688    
 1557-42-356     2279.0000000        2285.6850586       -6.6850585938    
 1557-48-355     2255.0000000        2258.0102539       -3.0102539062    
 1557-56-20      2229.0000000        2237.5632324       -8.5632324219    
 1557-71-13      2210.0000000        2233.6083984       -23.608398438    
 1557-71-365     2214.0000000        2236.1425781       -22.142578125    
 1570-2-98       2390.0000000        2390.6291504      -0.62915039062    
 1631-12-96      2393.0000000        2385.4291992        7.5708007812    
 1631-17-87      2379.0000000        2370.9704590        8.0295410156    
 1631-22-80      2357.0000000        2348.9775391        8.0224609375    
 1631-26-279     2340.0000000        2336.6579590        3.3420410156    
 1631-42-355     2287.0000000        2292.9226074       -5.9226074219    
 1631-48-355     2262.0000000        2268.9721680       -6.9721679688    
 1631-56-26      2241.0000000        2250.5581055       -9.5581054688    
 1631-66-32      2212.0000000        2231.4794922       -19.479492188    
 1631-71-33      2220.0000000        2242.1513672       -22.151367188    
 1631-71-365     2226.0000000        2243.7883301       -17.788330078    
 1519-42-355     2288.0000000        2293.2114258       -5.2114257812    
 1519-48-355     2265.0000000        2265.3579102      -0.35791015625    
 1519-56-20      2242.0000000        2246.2458496       -4.2458496094    
 1519-61-18      2212.0000000        2220.0664062       -8.0664062500    
 1519-66-32      2212.0000000        2230.0102539       -18.010253906    
 1519-71-33      2222.0000000        2241.9648438       -19.964843750    
 1519-71-365     2225.0000000        2243.4396973       -18.439697266    
 1542-56-20      2230.0000000        2248.1579590       -18.157958984    
 1542-60-350     2189.0000000        2219.7495117       -30.749511719    
 1542-66-54      2201.0000000        2237.8203125       -36.820312500    
 1542-71-13      2211.0000000        2248.8603516       -37.860351562    
 1542-71-365     2215.0000000        2249.8833008       -34.883300781    
 1520-17-87      2376.0000000        2376.8308105      -0.83081054688    
 1520-22-80      2358.0000000        2353.3256836        4.6743164062    
 1520-32-60      2328.0000000        2332.1933594       -4.1933593750    
 1520-42-356     2288.0000000        2300.1682129       -12.168212891    
 1597-56-27      2221.0000000        2229.4291992       -8.4291992188    
 1597-66-26      2193.0000000        2215.6960449       -22.696044922    
 1597-71-28      2205.0000000        2228.1687012       -23.168701172    
 1597-71-365     2208.0000000        2230.6887207       -22.688720703    
 1581-11-256     2383.0000000        2373.4440918        9.5559082031    
 1583-56-27      2226.0000000        2228.7326660       -2.7326660156    
 1583-66-26      2197.0000000        2210.2678223       -13.267822266    
 1583-71-28      2207.0000000        2221.6328125       -14.632812500    
 1583-71-29      2209.0000000        2221.6418457       -12.641845703    
 1583-71-365     2210.0000000        2224.2265625       -14.226562500    
 1583-71-365     2210.0000000        2224.2265625       -14.226562500    
 1565-71-28      2215.0000000        2231.1079102       -16.107910156    
 1565-71-365     2217.0000000        2233.1206055       -16.120605469    
 1595-11-257     2369.0000000        2363.9335938        5.0664062500    
 1533-8-65       2373.0000000        2368.5358887        4.4641113281    
 1533-12-96      2366.0000000        2359.4895020        6.5104980469    
 1533-17-82      2354.0000000        2347.7946777        6.2053222656    
 1533-22-80      2339.0000000        2330.6376953        8.3623046875    
 1533-27-15      2324.0000000        2318.4895020        5.5104980469    
 1533-42-363     2280.0000000        2275.8859863        4.1140136719    
 1537-42-363     2277.0000000        2274.2834473        2.7165527344    
 1537-48-357     2262.0000000        2252.2294922        9.7705078125    
 1541-66-55      2208.0000000        2210.5505371       -2.5505371094    
 1541-71-76      2217.0000000        2218.8747559       -1.8747558594    
 1541-71-365     2216.0000000        2220.6228027       -4.6228027344    
 1510-42-357     2288.0000000        2279.6289062        8.3710937500    
 1510-48-337     2274.0000000        2259.9318848        14.068115234    
 1510-56-18      2247.0000000        2239.5954590        7.4045410156    
 1510-60-333     2215.0000000        2218.6049805       -3.6049804688    
 1510-65-299     2215.0000000        2215.6333008      -0.63330078125    
 1510-71-11      2226.0000000        2224.4687500        1.5312500000    
 1510-71-365     2232.0000000        2225.8813477        6.1186523438    
 1511-31-351     2321.0000000        2312.1325684        8.8674316406    
 1511-37-27      2298.0000000        2287.4680176        10.531982422    
 1511-42-357     2285.0000000        2279.6289062        5.3710937500    
 1511-48-337     2270.0000000        2259.9318848        10.068115234    
 1511-56-18      2243.0000000        2239.5954590        3.4045410156    
 1511-60-333     2210.0000000        2218.6049805       -8.6049804688    
 1511-65-299     2210.0000000        2215.6333008       -5.6333007812    
 1511-71-12      2223.0000000        2224.4621582       -1.4621582031    
 1511-71-365     2231.0000000        2225.8813477        5.1186523438    
 1512-31-351     2313.0000000        2312.1325684       0.86743164062    
 1512-42-357     2281.0000000        2279.6289062        1.3710937500    
 1512-48-337     2266.0000000        2259.9318848        6.0681152344    
 1512-56-18      2244.0000000        2239.5954590        4.4045410156    
 1513-31-351     2313.0000000        2312.1325684       0.86743164062    
 1513-42-357     2279.0000000        2279.6289062      -0.62890625000    
 1513-48-337     2262.0000000        2259.9318848        2.0681152344    
 1513-56-18      2241.0000000        2239.5954590        1.4045410156    
 1513-60-333     2223.0000000        2218.6049805        4.3950195312    
 1513-65-299     2216.0000000        2215.6333008       0.36669921875    
 1513-71-11      2225.0000000        2224.4687500       0.53125000000    
 1513-71-365     2229.0000000        2225.8813477        3.1186523438    
 1505-66-26      2212.0000000        2225.4345703       -13.434570312    
 1505-71-53      2224.0000000        2235.7644043       -11.764404297    
 1505-71-365     2227.0000000        2237.3176270       -10.317626953    
 1546-8-65       2365.0000000        2362.4165039        2.5834960938    
 1546-10-31      2359.0000000        2359.5095215      -0.50952148438    
 1546-17-82      2340.0000000        2343.5463867       -3.5463867188    
 1546-22-81      2325.0000000        2326.9321289       -1.9321289062    
 1551-42-363     2269.0000000        2268.4230957       0.57690429688    
 1551-48-357     2247.0000000        2249.5847168       -2.5847167969    
 1551-56-13      2223.0000000        2228.4291992       -5.4291992188    
 1551-61-31      2211.0000000        2210.9003906       9.96093750000E-02
 1551-66-19      2205.0000000        2205.4377441      -0.43774414062    
 1551-71-32      2214.0000000        2213.8378906       0.16210937500    
 1551-71-365     2217.0000000        2215.6254883        1.3745117188    
 1525-10-154     2356.0000000        2355.7807617       0.21923828125    
 1525-22-83      2327.0000000        2326.1464844       0.85351562500    
 1525-32-60      2295.0000000        2302.4528809       -7.4528808594    
 1525-42-363     2270.0000000        2271.6621094       -1.6621093750    
 1525-56-25      2233.0000000        2234.1347656       -1.1347656250    
 1525-60-351     2221.0000000        2217.0117188        3.9882812500    
 1525-66-1       2214.0000000        2211.1047363        2.8952636719    
 1525-71-32      2220.0000000        2216.4531250        3.5468750000    
 1525-71-365     2222.0000000        2217.8059082        4.1940917969    
 1813-17-82      2346.0000000        2345.4604492       0.53955078125    
 1813-22-82      2331.0000000        2328.9768066        2.0231933594    
 1813-26-294     2315.0000000        2316.6630859       -1.6630859375    
 1813-42-363     2274.0000000        2272.5319824        1.4680175781    
 1813-48-357     2254.0000000        2250.9328613        3.0671386719    
 1813-56-25      2232.0000000        2230.4768066        1.5231933594    
 1813-60-351     2216.0000000        2211.9204102        4.0795898438    
 1813-66-19      2211.0000000        2209.2358398        1.7641601562    
 1813-71-32      2219.0000000        2218.1796875       0.82031250000    
 1813-71-365     2221.0000000        2219.8464355        1.1535644531    
 1538-10-154     2366.0000000        2357.2519531        8.7480468750    
 1538-17-86      2350.0000000        2342.2622070        7.7377929688    
 1538-22-82      2333.0000000        2326.2336426        6.7663574219    
 1538-42-363     2276.0000000        2270.0756836        5.9243164062    
 1567-12-59      2335.0000000        2338.1120605       -3.1120605469    
 1567-17-85      2326.0000000        2328.0327148       -2.0327148438    
 1567-22-53      2311.0000000        2313.2729492       -2.2729492188    
 1567-27-15      2301.0000000        2300.5585938       0.44140625000    
 1567-32-65      2290.0000000        2291.3051758       -1.3051757812    
 1578-42-362     2258.0000000        2259.7490234       -1.7490234375    
 1579-34-182     2273.0000000        2280.5209961       -7.5209960938    
 1466-12-96      2355.0000000        2349.7924805        5.2075195312    
 1466-17-89      2342.0000000        2343.8344727       -1.8344726562    
 1466-32-60      2285.0000000        2309.9577637       -24.957763672    
 1466-37-89      2283.0000000        2291.3776855       -8.3776855469    
 1466-42-363     2278.0000000        2285.0373535       -7.0373535156    
 1466-48-357     2273.0000000        2279.0791016       -6.0791015625    
 1466-56-25      2260.0000000        2261.7897949       -1.7897949219    
 1466-71-365     2262.0000000        2224.8474121        37.152587891    
 1467-17-89      2339.0000000        2344.3232422       -5.3232421875    
 1467-22-60      2341.0000000        2331.4887695        9.5112304688    
 1467-48-357     2284.0000000        2279.2751465        4.7248535156    
 1467-56-25      2271.0000000        2262.0229492        8.9770507812    
 1467-60-351     2249.0000000        2243.3071289        5.6928710938    
 1467-65-355     2244.0000000        2229.8994141        14.100585938    
 1467-71-52      2248.0000000        2225.3708496        22.629150391    
 1467-71-365     2251.0000000        2225.2187500        25.781250000    
 1470-17-82      2358.0000000        2354.1496582        3.8503417969    
 1470-22-82      2341.0000000        2337.9387207        3.0612792969    
 1470-42-362     2281.0000000        2285.2463379       -4.2463378906    
 1470-48-357     2261.0000000        2267.9140625       -6.9140625000    
 1470-56-18      2245.0000000        2248.3942871       -3.3942871094    
 1470-60-308     2248.0000000        2230.8286133        17.171386719    
 1470-71-365     2236.0000000        2231.0234375        4.9765625000    
 1500-27-60      2313.0000000        2315.8112793       -2.8112792969    
 1500-42-362     2271.0000000        2277.2380371       -6.2380371094    
 1500-48-357     2256.0000000        2262.0551758       -6.0551757812    
 1500-56-25      2238.0000000        2243.6076660       -5.6076660156    
 1500-60-351     2226.0000000        2227.4938965       -1.4938964844    
 1459-11-68      2372.0000000        2360.9887695        11.011230469    
 1459-17-82      2352.0000000        2350.4055176        1.5944824219    
 1459-22-60      2338.0000000        2335.9304199        2.0695800781    
 1459-26-293     2313.0000000        2321.2778320       -8.2778320312    
 1459-42-363     2281.0000000        2285.5729980       -4.5729980469    
 1459-48-357     2271.0000000        2271.3334961      -0.33349609375    
 1459-56-25      2257.0000000        2256.0820312       0.91796875000    
 1459-60-351     2245.0000000        2238.1538086        6.8461914062    
 1459-66-12      2239.0000000        2229.9763184        9.0236816406    
 1459-71-365     2240.0000000        2229.2438965        10.756103516    
 1455-12-96      2383.0000000        2368.7734375        14.226562500    
 1455-17-82      2366.0000000        2356.8234863        9.1765136719    
 1443-12-96      2386.0000000        2369.2451172        16.754882812    
 1443-17-82      2368.0000000        2358.3908691        9.6091308594    
 1443-32-60      2324.0000000        2318.3244629        5.6755371094    
 1443-38-60      2317.0000000        2296.5759277        20.424072266    
 1443-42-364     2288.0000000        2290.9797363       -2.9797363281    
 1443-48-341     2308.0000000        2275.1503906        32.849609375    
 1486-56-56      2255.0000000        2255.4335938      -0.43359375000    
 1486-71-365     2233.0000000        2237.6801758       -4.6801757812    
 1485-71-365     2233.0000000        2237.6801758       -4.6801757812    
 1475-11-305     2358.0000000        2370.8867188       -12.886718750    
 1465-17-82      2367.0000000        2360.6901855        6.3098144531    
 1465-22-82      2351.0000000        2344.4877930        6.5122070312    
 1465-42-356     2285.0000000        2289.3161621       -4.3161621094    
 1465-48-355     2273.0000000        2275.7307129       -2.7307128906    
 1465-56-25      2256.0000000        2257.1838379       -1.1838378906    
 1465-60-351     2237.0000000        2240.0710449       -3.0710449219    
 1465-66-1       2234.0000000        2232.9038086        1.0961914062    
 1465-71-365     2240.0000000        2235.5937500        4.4062500000    
 1440-17-82      2373.0000000        2368.9985352        4.0014648438    
 1440-22-80      2355.0000000        2350.8547363        4.1452636719    
 1440-32-60      2326.0000000        2325.9655762       3.44238281250E-02
 1440-37-90      2301.0000000        2304.6362305       -3.6362304688    
 1440-48-355     2276.0000000        2278.4875488       -2.4875488281    
 1441-11-283     2409.0000000        2394.2673340        14.732666016    
 1474-17-87      2384.0000000        2383.6286621       0.37133789062    
 1474-22-80      2367.0000000        2362.6862793        4.3137207031    
 1474-61-31      2235.0000000        2249.1044922       -14.104492188    
 1474-71-68      2238.0000000        2258.6359863       -20.635986328    
 1474-71-365     2238.0000000        2259.7070312       -21.707031250    
 1478-48-355     2282.0000000        2285.0158691       -3.0158691406    
 1478-56-26      2259.0000000        2267.5783691       -8.5783691406    
 1478-60-350     2238.0000000        2245.0668945       -7.0668945312    
 1478-65-355     2224.0000000        2249.9934082       -25.993408203    
 1478-71-68      2237.0000000        2257.6604004       -20.660400391    
 1478-71-365     2238.0000000        2258.5866699       -20.586669922    
 1453-17-85      2382.0000000        2379.1716309        2.8283691406    
 1453-22-80      2362.0000000        2359.7094727        2.2905273438    
 1453-42-356     2296.0000000        2306.0292969       -10.029296875    
 1453-48-355     2280.0000000        2286.2309570       -6.2309570312    
 1453-66-49      2244.0000000        2247.3056641       -3.3056640625    
 1453-71-68      2245.0000000        2252.1894531       -7.1894531250    
 1453-71-365     2244.0000000        2252.9870605       -8.9870605469    
 1454-42-356     2295.0000000        2307.4987793       -12.498779297    
 1454-48-355     2279.0000000        2284.7839355       -5.7839355469    
 1454-55-362     2264.0000000        2266.8818359       -2.8818359375    
 1454-61-31      2239.0000000        2245.9372559       -6.9372558594    
 1454-66-49      2238.0000000        2247.9577637       -9.9577636719    
 1454-71-68      2244.0000000        2253.5610352       -9.5610351562    
 1454-71-365     2244.0000000        2254.3737793       -10.373779297    
 1447-66-49      2234.0000000        2249.6093750       -15.609375000    
 1447-71-68      2240.0000000        2254.3808594       -14.380859375    
 1447-71-365     2241.0000000        2255.1533203       -14.153320312    
 1444-42-356     2300.0000000        2315.3061523       -15.306152344    
 1444-48-355     2280.0000000        2292.0522461       -12.052246094    
 1444-55-362     2266.0000000        2274.9335938       -8.9335937500    
 1444-61-6       2244.0000000        2256.5595703       -12.559570312    
 1444-66-49      2245.0000000        2257.4250488       -12.425048828    
 1444-71-68      2248.0000000        2261.7924805       -13.792480469    
 1444-71-365     2249.0000000        2262.5520020       -13.552001953    
 1499-11-360     2412.0000000        2414.9262695       -2.9262695312    
 1499-17-85      2392.0000000        2395.7033691       -3.7033691406    
 1499-22-81      2373.0000000        2375.2331543       -2.2331542969    
 1499-48-355     2278.0000000        2294.1423340       -16.142333984    
 1499-56-20      2259.0000000        2278.2851562       -19.285156250    
 1499-60-350     2237.0000000        2255.8649902       -18.864990234    
 1499-66-14      2227.0000000        2263.8530273       -36.853027344    
 1499-71-64      2230.0000000        2271.2817383       -41.281738281    
 1499-71-365     2231.0000000        2271.6403809       -40.640380859    
 1490-66-45      2231.0000000        2266.8967285       -35.896728516    
 1490-71-64      2237.0000000        2273.7834473       -36.783447266    
 1490-71-365     2236.0000000        2274.1459961       -38.145996094    
 1436-71-64      2247.0000000        2270.7656250       -23.765625000    
 1436-71-365     2247.0000000        2271.3942871       -24.394287109    
 1488-17-87      2396.0000000        2414.2204590       -18.220458984    
 1488-22-81      2374.0000000        2393.8815918       -19.881591797    
 1488-48-350     2281.0000000        2313.6889648       -32.688964844    
 1488-56-20      2281.0000000        2298.7192383       -17.719238281    
 1502-17-85      2394.0000000        2408.5791016       -14.579101562    
 1502-22-81      2374.0000000        2387.9995117       -13.999511719    
 1502-48-365     2275.0000000        2305.0021973       -30.002197266    
 1502-56-20      2259.0000000        2290.7944336       -31.794433594    
 1502-60-350     2239.0000000        2271.8081055       -32.808105469    
 1502-66-46      2231.0000000        2278.6232910       -47.623291016    
 1502-71-54      2236.0000000        2285.0190430       -49.019042969    
 1502-71-365     2237.0000000        2285.3999023       -48.399902344    
 1477-8-69       2422.0000000        2429.8303223       -7.8303222656    
 1477-12-96      2416.0000000        2424.2585449       -8.2585449219    
 1477-17-86      2396.0000000        2404.7551270       -8.7551269531    
 1477-22-81      2375.0000000        2385.9230957       -10.923095703    
 1477-32-60      2339.0000000        2361.2973633       -22.297363281    
 1458-17-85      2403.0000000        2412.5170898       -9.5170898438    
 1458-22-81      2374.0000000        2393.3444824       -19.344482422    
 1458-42-355     2307.0000000        2341.3120117       -34.312011719    
 1458-48-350     2294.0000000        2319.6564941       -25.656494141    
 1458-56-20      2293.0000000        2303.2565918       -10.256591797    
 1458-60-350     2267.0000000        2286.7023926       -19.702392578    
 1458-71-64      2254.0000000        2291.9816895       -37.981689453    
 1458-71-365     2254.0000000        2292.3356934       -38.335693359    
 1460-66-1       2248.0000000        2286.7456055       -38.745605469    
 1460-71-64      2252.0000000        2291.6972656       -39.697265625    
 1460-71-365     2252.0000000        2292.0434570       -40.043457031    
 1429-17-85      2413.0000000        2417.7941895       -4.7941894531    
 1429-22-81      2380.0000000        2398.8544922       -18.854492188    
 1429-42-355     2327.0000000        2352.0988770       -25.098876953    
 1429-48-350     2319.0000000        2334.4814453       -15.481445312    
 1429-56-20      2319.0000000        2317.5473633        1.4526367188    
 1429-60-350     2295.0000000        2302.4270020       -7.4270019531    
 1429-66-53      2283.0000000        2298.6525879       -15.652587891    
 1429-71-13      2281.0000000        2300.7314453       -19.731445312    
 1429-71-365     2281.0000000        2301.1894531       -20.189453125    
 1431-17-85      2421.0000000        2431.1381836       -10.138183594    
 1431-22-82      2385.0000000        2411.9516602       -26.951660156    
 1431-27-63      2379.0000000        2395.0483398       -16.048339844    
 1431-32-60      2360.0000000        2388.3786621       -28.378662109    
 1431-42-355     2337.0000000        2363.6169434       -26.616943359    
 1431-48-350     2329.0000000        2346.6762695       -17.676269531    
 1431-56-20      2334.0000000        2329.3334961        4.6665039062    
 1431-60-350     2307.0000000        2314.9724121       -7.9724121094    
 1431-71-13      2294.0000000        2311.9401855       -17.940185547    
 1431-71-365     2293.0000000        2312.4265137       -19.426513672    
 1392-16-363     2419.0000000        2427.8249512       -8.8249511719    
 1397-22-80      2377.0000000        2375.7746582        1.2253417969    
 1397-42-355     2303.0000000        2319.6166992       -16.616699219    
 1397-48-355     2297.0000000        2304.7189941       -7.7189941406    
 1397-55-361     2287.0000000        2291.5290527       -4.5290527344    
 1397-61-14      2271.0000000        2271.1079102      -0.10791015625    
 1397-66-12      2261.0000000        2265.9782715       -4.9782714844    
 1397-71-68      2263.0000000        2265.6972656       -2.6972656250    
 1397-71-365     2262.0000000        2265.8056641       -3.8056640625    
 1426-12-95      2393.0000000        2379.6601562        13.339843750    
 1426-17-82      2374.0000000        2367.8869629        6.1130371094    
 1426-22-80      2353.0000000        2349.8947754        3.1052246094    
 1426-26-288     2333.0000000        2334.8410645       -1.8410644531    
 1426-42-356     2289.0000000        2299.1315918       -10.131591797    
 1426-48-355     2280.0000000        2283.7641602       -3.7641601562    
 1426-55-350     2272.0000000        2270.8483887        1.1516113281    
 1426-61-13      2254.0000000        2244.9548340        9.0451660156    
 1426-66-12      2248.0000000        2244.9016113        3.0983886719    
 1426-71-54      2251.0000000        2245.1074219        5.8925781250    
 1426-71-365     2251.0000000        2245.4592285        5.5407714844    
 1411-56-25      2327.0000000        2276.7487793        50.251220703    
 1411-61-42      2256.0000000        2250.2719727        5.7280273438    
 1411-66-12      2261.0000000        2249.5268555        11.473144531    
 1411-71-54      2264.0000000        2246.3823242        17.617675781    
 1411-71-365     2265.0000000        2246.3632812        18.636718750    
 1409-61-42      2252.0000000        2250.3784180        1.6215820312    
 1409-66-12      2255.0000000        2250.9333496        4.0666503906    
 1409-71-54      2259.0000000        2247.7290039        11.270996094    
 1409-71-365     2259.0000000        2247.6613770        11.338623047    
 1390-71-68      2273.0000000        2249.0041504        23.995849609    
 1390-71-362     2274.0000000        2248.4975586        25.502441406    
 1416-71-1       2345.0000000        2236.0908203        108.90917969    
 1372-66-5       2260.0000000        2262.9736328       -2.9736328125    
 1372-71-68      2266.0000000        2257.0646973        8.9353027344    
 1372-71-362     2267.0000000        2256.4882812        10.511718750    
 1312-12-265     2428.0000000        2410.8874512        17.112548828    
 1332-71-13      2268.0000000        2278.0415039       -10.041503906    
 1332-71-362     2269.0000000        2277.7551270       -8.7551269531    
 1359-32-69      2369.0000000        2392.6169434       -23.616943359    
 1359-37-95      2357.0000000        2379.6127930       -22.612792969    
 1359-42-356     2342.0000000        2368.4384766       -26.438476562    
 1359-48-334     2340.0000000        2354.7431641       -14.743164062    
 1359-56-19      2336.0000000        2338.6215820       -2.6215820312    
 1359-60-321     2328.0000000        2325.3762207        2.6237792969    
 1359-65-298     2316.0000000        2315.4042969       0.59570312500    
 1359-71-14      2311.0000000        2313.6010742       -2.6010742188    
 1359-71-365     2310.0000000        2313.7497559       -3.7497558594    
 1333-7-28       2444.0000000        2455.1660156       -11.166015625    
 1333-12-95      2441.0000000        2450.0964355       -9.0964355469    
 1333-17-87      2429.0000000        2438.9462891       -9.9462890625    
 1333-32-69      2376.0000000        2398.7507324       -22.750732422    
 1333-56-19      2338.0000000        2345.4438477       -7.4438476562    
 1333-61-60      2326.0000000        2331.6862793       -5.6862792969    
 1333-66-25      2318.0000000        2321.6843262       -3.6843261719    
 1355-32-69      2393.0000000        2414.2133789       -21.213378906    
 1355-37-95      2380.0000000        2399.4682617       -19.468261719    
 1355-42-356     2364.0000000        2388.5534668       -24.553466797    
 1355-48-344     2361.0000000        2375.2373047       -14.237304688    
 1355-56-19      2358.0000000        2359.8395996       -1.8395996094    
 1355-61-60      2344.0000000        2346.6437988       -2.6437988281    
 1355-66-25      2340.0000000        2338.0417480        1.9582519531    
 1355-71-40      2336.0000000        2335.0695801       0.93041992188    
 1295-32-69      2390.0000000        2413.5957031       -23.595703125    
 1295-37-95      2371.0000000        2399.0100098       -28.010009766    
 1295-42-355     2349.0000000        2387.7380371       -38.738037109    
 1295-56-19      2349.0000000        2363.8129883       -14.812988281    
 1295-61-60      2339.0000000        2351.7565918       -12.756591797    
 1289-48-344     2368.0000000        2384.7102051       -16.710205078    
 1289-56-20      2364.0000000        2370.7238770       -6.7238769531    
 1289-61-60      2350.0000000        2358.0727539       -8.0727539062    
 1289-66-25      2344.0000000        2348.9030762       -4.9030761719    
 1289-71-40      2343.0000000        2344.4267578       -1.4267578125    
 1856-33-79      2578.0000000        2575.0458984        2.9541015625    
 1866-42-356     2576.0000000        2582.3073730       -6.3073730469    
 1866-48-348     2579.0000000        2599.2897949       -20.289794922    
 1866-55-347     2585.0000000        2596.5874023       -11.587402344    
 1866-60-356     2566.0000000        2584.9780273       -18.978027344    
 1866-66-5       2562.0000000        2573.9160156       -11.916015625    
 1866-71-39      2575.0000000        2572.2753906        2.7246093750    
 1866-71-41      2576.0000000        2572.2995605        3.7004394531    
 1866-71-365     2573.0000000        2574.2666016       -1.2666015625    
 1859-55-347     2584.0000000        2596.8955078       -12.895507812    
 1859-66-33      2569.0000000        2575.1594238       -6.1594238281    
 1860-42-356     2576.0000000        2582.5952148       -6.5952148438    
 1860-48-348     2583.0000000        2599.5688477       -16.568847656    
 1860-56-5       2587.0000000        2596.3193359       -9.3193359375    
 1860-66-5       2561.0000000        2573.8679199       -12.867919922    
 1860-71-365     2572.0000000        2574.2619629       -2.2619628906    
 1867-66-5       2564.0000000        2573.0104980       -9.0104980469    
 1867-71-365     2574.0000000        2573.4155273       0.58447265625    
 1855-66-5       2562.0000000        2573.0791016       -11.079101562    
 1855-71-365     2571.0000000        2573.4960938       -2.4960937500    
 1876-42-362     2512.0000000        2559.6311035       -47.631103516    
 1876-48-338     2505.0000000        2564.5424805       -59.542480469    
 1876-56-16      2507.0000000        2566.0505371       -59.050537109    
 1750-56-16      2540.0000000        2559.8669434       -19.866943359    
 1750-61-53      2526.0000000        2547.4562988       -21.456298828    
 1750-66-27      2459.0000000        2525.5537109       -66.553710938    
 1730-56-16      2519.0000000        2558.8498535       -39.849853516    
 1730-61-53      2488.0000000        2545.5258789       -57.525878906    
 1730-66-31      2447.0000000        2523.2558594       -76.255859375    
 1835-22-32      2566.0000000        2579.9016113       -13.901611328    
 1835-27-12      2578.0000000        2582.9096680       -4.9096679688    
 1831-1-365      2572.0000000        2581.5197754       -9.5197753906    
 1801-22-32      2571.0000000        2574.5170898       -3.5170898438    
 1801-27-12      2578.0000000        2577.1938477       0.80615234375    
 1739-56-16      2543.0000000        2561.2880859       -18.288085938    
 1739-61-53      2512.0000000        2548.6757812       -36.675781250    
 1739-66-27      2470.0000000        2526.5146484       -56.514648438    
 1725-66-12      2427.0000000        2449.3203125       -22.320312500    
 1725-71-365     2444.0000000        2456.7282715       -12.728271484    
 1761-27-17      2560.0000000        2554.7121582        5.2878417969    
 1761-32-60      2546.0000000        2549.4597168       -3.4597167969    
 1761-42-355     2538.0000000        2535.0468750        2.9531250000    
 1761-48-350     2547.0000000        2536.0690918        10.930908203    
 1761-56-6       2565.0000000        2536.9931641        28.006835938    
 1761-66-1       2523.0000000        2500.6865234        22.313476562    
 1761-71-35      2531.0000000        2505.2636719        25.736328125    
 1761-71-365     2527.0000000        2504.4814453        22.518554688    
 1774-48-365     2512.0000000        2517.5529785       -5.5529785156    
 1774-56-5       2517.0000000        2524.4433594       -7.4433593750    
 1774-66-1       2441.0000000        2489.2692871       -48.269287109    
 1774-71-35      2455.0000000        2497.9084473       -42.908447266    
 1774-71-365     2470.0000000        2496.8405762       -26.840576172    
 1740-1-365      2556.0000000        2553.7023926        2.2976074219    
 1740-16-356     2564.0000000        2553.2019043        10.798095703    
 1853-42-357     2500.0000000        2504.9123535       -4.9123535156    
 1850-48-338     2494.0000000        2489.5024414        4.4975585938    
 1850-56-16      2506.0000000        2484.9951172        21.004882812    
 1850-66-31      2432.0000000        2444.5815430       -12.581542969    
 1850-71-40      2432.0000000        2449.4919434       -17.491943359    
 1895-16-362     2491.0000000        2499.6618652       -8.6618652344    
 1895-22-32      2496.0000000        2499.5449219       -3.5449218750    
 1895-27-12      2495.0000000        2498.2348633       -3.2348632812    
 1737-43-32      2452.0000000        2453.4155273       -1.4155273438    
 1737-48-355     2449.0000000        2447.8242188        1.1757812500    
 1737-56-5       2450.0000000        2441.6435547        8.3564453125    
 1737-61-26      2416.0000000        2418.1352539       -2.1352539062    
 1737-66-28      2390.0000000        2401.1254883       -11.125488281    
 1737-71-35      2403.0000000        2409.7353516       -6.7353515625    
 1737-71-365     2410.0000000        2410.0090332      -9.03320312500E-03
 1802-1-276      2517.0000000        2519.8110352       -2.8110351562    
 1802-4-104      2524.0000000        2520.2036133        3.7963867188    
 1746-42-355     2492.0000000        2474.1757812        17.824218750    
 1746-48-355     2485.0000000        2469.2060547        15.793945312    
 1746-56-11      2478.0000000        2462.3066406        15.693359375    
 1746-61-33      2448.0000000        2439.1149902        8.8850097656    
 1746-66-28      2423.0000000        2420.2622070        2.7377929688    
 1746-71-33      2429.0000000        2427.7658691        1.2341308594    
 1746-71-344     2436.0000000        2428.8623047        7.1376953125    
 1940-42-355     2460.0000000        2459.6123047       0.38769531250    
 1940-48-355     2452.0000000        2458.8503418       -6.8503417969    
 1940-56-5       2458.0000000        2449.0502930        8.9497070312    
 1940-66-1       2399.0000000        2413.1345215       -14.134521484    
 1940-71-35      2414.0000000        2415.8093262       -1.8093261719    
 1940-71-365     2425.0000000        2416.6235352        8.3764648438    
 1925-48-355     2454.0000000        2456.2189941       -2.2189941406    
 1925-56-5       2452.0000000        2446.1040039        5.8959960938    
 1925-61-26      2430.0000000        2430.7192383      -0.71923828125    
 1925-66-32      2401.0000000        2412.5310059       -11.531005859    
 1925-71-35      2415.0000000        2414.2646484       0.73535156250    
 1925-71-365     2425.0000000        2414.9943848        10.005615234    
 1733-2-93       2454.0000000        2480.6584473       -26.658447266    
 1732-12-114     2492.0000000        2482.4140625        9.5859375000    
 1732-16-362     2487.0000000        2479.4055176        7.5944824219    
 1732-27-90      2488.0000000        2469.9763184        18.023681641    
 1732-32-60      2477.0000000        2461.2653809        15.734619141    
 1732-42-357     2451.0000000        2425.5117188        25.488281250    
 1732-48-341     2442.0000000        2409.2883301        32.711669922    
 1732-56-16      2442.0000000        2395.5341797        46.465820312    
 1809-48-355     2456.0000000        2442.7060547        13.293945312    
 1809-55-346     2445.0000000        2432.2458496        12.754150391    
 1809-60-364     2416.0000000        2414.9870605        1.0129394531    
 1809-66-28      2392.0000000        2398.0615234       -6.0615234375    
 1809-71-39      2404.0000000        2403.8369141       0.16308593750    
 1809-71-365     2410.0000000        2405.0410156        4.9589843750    
 1731-56-5       2444.0000000        2421.0344238        22.965576172    
 1731-60-351     2411.0000000        2402.5126953        8.4873046875    
 1731-65-364     2388.0000000        2386.8322754        1.1677246094    
 1731-71-35      2402.0000000        2394.8615723        7.1384277344    
 1731-71-365     2409.0000000        2396.2719727        12.728027344    
 1915-56-13      2454.0000000        2421.0202637        32.979736328    
 1915-60-351     2434.0000000        2409.3884277        24.611572266    
 1915-66-32      2406.0000000        2393.3691406        12.630859375    
 1915-71-55      2421.0000000        2395.3254395        25.674560547    
 1915-71-365     2430.0000000        2395.0698242        34.930175781    
 1869-1-365      2488.0000000        2471.0329590        16.967041016    
 1884-1-52       2488.0000000        2481.8500977        6.1499023438    
 1910-66-32      2249.0000000        2357.0483398       -108.04833984    
 1910-71-365     2261.0000000        2360.3615723       -99.361572266    
 1887-66-32      2240.0000000        2344.3950195       -104.39501953    
 1887-71-365     2251.0000000        2348.4335938       -97.433593750    
 1854-66-48      2237.0000000        2339.9409180       -102.94091797    
 1885-7-322      2430.0000000        2464.5739746       -34.573974609    
 1885-12-116     2429.0000000        2460.5258789       -31.525878906    
 1790-66-48      2237.0000000        2347.8972168       -110.89721680    
 1836-66-48      2246.0000000        2328.1130371       -82.113037109    
 1783-66-48      2233.0000000        2326.8798828       -93.879882812    
 1846-48-355     2447.0000000        2406.3479004        40.652099609    
 1846-55-327     2443.0000000        2388.8803711        54.119628906    
 1846-61-14      2423.0000000        2377.3505859        45.649414062    
 1846-66-48      2393.0000000        2368.5244141        24.475585938    
 1846-71-365     2419.0000000        2372.7243652        46.275634766    
 1845-48-355     2280.0000000        2400.3427734       -120.34277344    
 1845-55-360     2260.0000000        2381.5920410       -121.59204102    
 1845-61-11      2236.0000000        2373.2905273       -137.29052734    
 1845-66-32      2236.0000000        2365.1762695       -129.17626953    
 1845-71-365     2248.0000000        2367.7478027       -119.74780273    
 1916-56-5       2280.0000000        2369.7124023       -89.712402344    
 1916-66-32      2252.0000000        2350.4709473       -98.470947266    
 1916-71-365     2266.0000000        2353.8217773       -87.821777344    
 1911-56-5       2277.0000000        2367.5207520       -90.520751953    
 1911-66-32      2249.0000000        2348.4016113       -99.401611328    
 1911-71-365     2265.0000000        2352.2189941       -87.218994141    
 1897-12-114     2444.0000000        2450.1977539       -6.1977539062    
 1897-27-10      2398.0000000        2427.0993652       -29.099365234    
 1893-66-32      2242.0000000        2339.0334473       -97.033447266    
 1893-71-365     2255.0000000        2343.4526367       -88.452636719    
 1917-48-355     2276.0000000        2323.5681152       -47.568115234    
 1917-66-32      2225.0000000        2304.6489258       -79.648925781    
 1917-71-344     2242.0000000        2311.3278809       -69.327880859    
 1672-66-45      2225.0000000        2294.4304199       -69.430419922    
 1647-12-332     2378.0000000        2431.5925293       -53.592529297    
 1647-16-355     2370.0000000        2421.4204102       -51.420410156    
 1659-22-81      2389.0000000        2410.4934082       -21.493408203    
 1659-42-356     2300.0000000        2343.5656738       -43.565673828    
 1659-48-355     2266.0000000        2315.6962891       -49.696289062    
 1659-56-6       2251.0000000        2307.7597656       -56.759765625    
 1659-60-354     2231.0000000        2296.7895508       -65.789550781    
 1659-66-45      2228.0000000        2299.1657715       -71.165771484    
 1659-71-365     2239.0000000        2306.1821289       -67.182128906    
 1682-48-355     2254.0000000        2297.2482910       -43.248291016    
 1707-42-355     2288.0000000        2326.3820801       -38.382080078    
 1707-48-355     2254.0000000        2297.2482910       -43.248291016    
 1707-56-26      2242.0000000        2294.7922363       -52.792236328    
 1707-60-354     2220.0000000        2282.5903320       -62.590332031    
 1707-66-45      2218.0000000        2287.3303223       -69.330322266    
 1707-71-365     2230.0000000        2295.0544434       -65.054443359    
 1712-42-355     2287.0000000        2324.5495605       -37.549560547    
 1712-48-355     2252.0000000        2294.9731445       -42.973144531    
 1712-56-5       2241.0000000        2292.4343262       -51.434326172    
 1712-61-14      2219.0000000        2280.1896973       -61.189697266    
 1712-65-355     2216.0000000        2286.1535645       -70.153564453    
 1712-71-67      2227.0000000        2292.7763672       -65.776367188    
 1712-71-365     2230.0000000        2293.3039551       -63.303955078    
 1671-22-79      2383.0000000        2399.9238281       -16.923828125    
 1671-42-355     2291.0000000        2327.3405762       -36.340576172    
 1671-48-355     2257.0000000        2297.9323730       -40.932373047    
 1671-56-20      2242.0000000        2295.9677734       -53.967773438    
 1627-22-82      2391.0000000        2408.2280273       -17.228027344    
 1627-32-90      2353.0000000        2376.7785645       -23.778564453    
 1627-37-90      2326.0000000        2356.3225098       -30.322509766    
 1627-42-356     2305.0000000        2339.4411621       -34.441162109    
 1627-48-350     2268.0000000        2311.0197754       -43.019775391    
 1627-55-360     2254.0000000        2304.6086426       -50.608642578    
 1627-61-12      2234.0000000        2292.7036133       -58.703613281    
 1627-66-1       2232.0000000        2296.2639160       -64.263916016    
 1627-71-53      2240.0000000        2302.2207031       -62.220703125    
 1627-71-365     2243.0000000        2302.9909668       -59.990966797    
 1607-1-276      2426.0000000        2441.9975586       -15.997558594    
 1607-6-269      2424.0000000        2440.5678711       -16.567871094    
 1607-11-269     2418.0000000        2435.6770020       -17.677001953    
 1598-66-45      2231.0000000        2297.3540039       -66.354003906    
 1643-27-90      2380.0000000        2443.3801270       -63.380126953    
 1632-22-82      2403.0000000        2425.2238770       -22.223876953    
 1632-27-15      2382.0000000        2408.2194824       -26.219482422    
 1632-32-77      2361.0000000        2395.5126953       -34.512695312    
 1632-42-356     2316.0000000        2359.4489746       -43.448974609    
 1632-48-355     2282.0000000        2335.4306641       -53.430664062    
 1632-56-6       2266.0000000        2321.6013184       -55.601318359    
 1632-60-354     2245.0000000        2311.1926270       -66.192626953    
 1632-66-48      2242.0000000        2309.8352051       -67.835205078    
 1632-71-53      2250.0000000        2315.8017578       -65.801757812    
 1632-71-365     2253.0000000        2316.9245605       -63.924560547    
 1677-32-64      2477.0000000        2474.1184082        2.8815917969    
 1677-42-355     2451.0000000        2430.2185059        20.781494141    
 1677-48-351     2439.0000000        2404.8825684        34.117431641    
 1677-56-5       2443.0000000        2400.5402832        42.459716797    
 1677-61-26      2407.0000000        2372.8176270        34.182373047    
 1677-66-39      2386.0000000        2364.4323730        21.567626953    
 1677-71-35      2403.0000000        2378.4323730        24.567626953    
 1677-71-365     2408.0000000        2379.1484375        28.851562500    
 1646-27-90      2489.0000000        2470.7973633        18.202636719    
 1646-32-64      2482.0000000        2460.2189941        21.781005859    
 1646-42-355     2446.0000000        2415.7302246        30.269775391    
 1646-48-350     2434.0000000        2386.6962891        47.303710938    
 1646-56-5       2437.0000000        2381.0173340        55.982666016    
 1646-61-26      2402.0000000        2354.3942871        47.605712891    
 1646-66-39      2382.0000000        2346.9550781        35.044921875    
 1646-71-39      2400.0000000        2362.4204102        37.579589844    
 1646-71-365     2406.0000000        2363.4479980        42.552001953    
 1602-42-355     2336.0000000        2415.2316895       -79.231689453    
 1602-48-350     2264.0000000        2377.0939941       -113.09399414    
 1602-71-35      2252.0000000        2354.3476562       -102.34765625    
 1602-71-365     2254.0000000        2355.1166992       -101.11669922    
 1601-42-355     2335.0000000        2413.0996094       -78.099609375    
 1601-48-350     2261.0000000        2373.1494141       -112.14941406    
 1601-55-348     2268.0000000        2370.1157227       -102.11572266    
 1601-61-14      2211.0000000        2340.1054688       -129.10546875    
 1601-66-19      2208.0000000        2334.6345215       -126.63452148    
 1601-71-35      2254.0000000        2354.8242188       -100.82421875    
 1601-71-365     2255.0000000        2355.5073242       -100.50732422    
 1674-10-253     2532.0000000        2514.5886230        17.411376953    
 1676-42-355     2484.0000000        2461.9587402        22.041259766    
 1676-48-350     2487.0000000        2452.0205078        34.979492188    
 1676-55-349     2473.0000000        2443.7448730        29.255126953    
 1676-61-27      2442.0000000        2418.0266113        23.973388672    
 1676-66-19      2415.0000000        2403.4296875        11.570312500    
 1676-71-35      2419.0000000        2412.6054688        6.3945312500    
 1676-71-365     2429.0000000        2413.4934082        15.506591797    
 1645-32-77      2486.0000000        2484.2778320        1.7221679688    
 1645-42-355     2454.0000000        2441.0793457        12.920654297    
 1645-55-360     2447.0000000        2413.8840332        33.115966797    
 1645-60-356     2411.0000000        2385.7797852        25.220214844    
 1645-66-1       2384.0000000        2375.9948730        8.0051269531    
 1645-71-35      2400.0000000        2388.3046875        11.695312500    
 1645-71-365     2406.0000000        2388.8942871        17.105712891    
 1604-32-77      2471.0000000        2469.6264648        1.3735351562    
 1604-42-355     2439.0000000        2425.7365723        13.263427734    
 1604-48-350     2422.0000000        2389.5927734        32.407226562    
 1604-55-360     2425.0000000        2383.4936523        41.506347656    
 1604-60-362     2397.0000000        2353.8037109        43.196289062    
 1604-71-48      2392.0000000        2364.8813477        27.118652344    
 1604-71-365     2295.0000000        2365.8977051       -70.897705078    
 1640-55-360     2486.0000000        2499.8391113       -13.839111328    
 1640-60-356     2455.0000000        2476.9755859       -21.975585938    
 1640-66-19      2415.0000000        2452.4384766       -37.438476562    
 1640-71-22      2426.0000000        2462.9711914       -36.971191406    
 1640-71-365     2433.0000000        2461.7631836       -28.763183594    
 1720-66-5       2502.0000000        2539.4177246       -37.417724609    
 1720-71-22      2498.0000000        2540.3852539       -42.385253906    
 1720-71-365     2505.0000000        2540.0427246       -35.042724609    
 1706-33-318     2550.0000000        2557.4965820       -7.4965820312    
 1669-7-32       2537.0000000        2554.0678711       -17.067871094    
 1669-12-106     2531.0000000        2551.9885254       -20.988525391    
 1669-32-68      2527.0000000        2548.2526855       -21.252685547    
 1669-38-60      2519.0000000        2541.0139160       -22.013916016    
 1669-42-354     2509.0000000        2535.0109863       -26.010986328    
 1622-32-68      2527.0000000        2545.7319336       -18.731933594    
 1622-38-60      2519.0000000        2538.1301270       -19.130126953    
 1622-42-354     2506.0000000        2530.1662598       -24.166259766    
 1622-48-341     2497.0000000        2524.7800293       -27.780029297    
 1622-56-17      2489.0000000        2506.0239258       -17.023925781    
 1622-61-54      2461.0000000        2488.7414551       -27.741455078    
 1622-66-32      2420.0000000        2466.4760742       -46.476074219    
 1556-61-27      2456.0000000        2466.6857910       -10.685791016    
 1556-66-5       2432.0000000        2475.7177734       -43.717773438    
 1556-71-22      2436.0000000        2474.5869141       -38.586914062    
 1556-71-365     2439.0000000        2474.2263184       -35.226318359    
 1553-7-336      2538.0000000        2529.8769531        8.1230468750    
 1553-12-106     2533.0000000        2529.1269531        3.8730468750    
 1553-42-354     2503.0000000        2486.0842285        16.915771484    
 1553-48-341     2490.0000000        2460.5471191        29.452880859    
 1568-33-234     2528.0000000        2514.4069824        13.593017578    
 1568-48-341     2497.0000000        2460.4716797        36.528320312    
 1594-71-22      2425.0000000        2392.0368652        32.963134766    
 1594-71-365     2432.0000000        2395.2290039        36.770996094    
 1563-32-68      2526.0000000        2502.7155762        23.284423828    
 1563-37-48      2507.0000000        2485.9023438        21.097656250    
 1563-42-355     2500.0000000        2465.3762207        34.623779297    
 1563-48-348     2488.0000000        2435.4406738        52.559326172    
 1563-56-6       2480.0000000        2417.6528320        62.347167969    
 1553-15-99      2533.0000000        2527.8273926        5.1726074219    
 1522-42-355     2506.0000000        2492.9123535        13.087646484    
 1522-48-348     2488.0000000        2465.3239746        22.676025391    
 1527-55-354     2475.0000000        2447.1804199        27.819580078    
 1527-61-54      2451.0000000        2409.7036133        41.296386719    
 1527-66-32      2420.0000000        2388.7736816        31.226318359    
 1527-71-22      2426.0000000        2398.3496094        27.650390625    
 1527-71-365     2430.0000000        2398.9506836        31.049316406    
 1589-42-355     2468.0000000        2457.8923340        10.107666016    
 1589-48-350     2453.0000000        2427.6181641        25.381835938    
 1589-55-360     2454.0000000        2412.1413574        41.858642578    
 1589-61-14      2417.0000000        2390.2861328        26.713867188    
 1589-66-32      2394.0000000        2358.4670410        35.532958984    
 1589-71-22      2404.0000000        2376.8081055        27.191894531    
 1589-71-365     2408.0000000        2379.9606934        28.039306641    
 1586-32-68      2475.0000000        2474.0385742       0.96142578125    
 1586-48-356     2414.0000000        2391.9995117        22.000488281    
 1586-56-6       2423.0000000        2385.8535156        37.146484375    
 1586-60-356     2377.0000000        2358.9831543        18.016845703    
 1586-66-1       2371.0000000        2348.9384766        22.061523438    
 1586-71-35      2390.0000000        2363.7929688        26.207031250    
 1586-71-365     2393.0000000        2365.6076660        27.392333984    
 1532-42-355     2430.0000000        2426.3962402        3.6037597656    
 1532-48-348     2407.0000000        2387.9050293        19.094970703    
 1532-55-354     2420.0000000        2381.7536621        38.246337891    
 1532-61-28      2365.0000000        2356.3830566        8.6169433594    
 1532-66-46      2371.0000000        2342.5869141        28.413085938    
 1532-71-22      2384.0000000        2356.8352051        27.164794922    
 1532-71-365     2386.0000000        2359.2536621        26.746337891    
 1534-42-355     2432.0000000        2416.6909180        15.309082031    
 1534-48-348     2408.0000000        2381.2272949        26.772705078    
 1534-55-360     2413.0000000        2373.3654785        39.634521484    
 1534-61-5       2374.0000000        2348.2021484        25.797851562    
 1534-66-46      2373.0000000        2339.7492676        33.250732422    
 1534-71-35      2386.0000000        2352.6794434        33.320556641    
 1534-71-365     2388.0000000        2354.1806641        33.819335938    
 1524-42-355     2467.0000000        2449.3786621        17.621337891    
 1524-48-348     2449.0000000        2414.0541992        34.945800781    
 1524-56-6       2450.0000000        2399.2062988        50.793701172    
 1524-60-356     2418.0000000        2377.2045898        40.795410156    
 1524-66-1       2399.0000000        2345.2468262        53.753173828    
 1524-71-48      2406.0000000        2362.4956055        43.504394531    
 1524-71-365     2408.0000000        2365.5764160        42.423583984    
 1561-21-340     2488.0000000        2479.2207031        8.7792968750    
 1561-32-64      2474.0000000        2455.9931641        18.006835938    
 1561-42-355     2435.0000000        2412.9226074        22.077392578    
 1561-48-350     2413.0000000        2376.9458008        36.054199219    
 1561-55-360     2415.0000000        2366.8486328        48.151367188    
 1561-61-26      2375.0000000        2338.1193848        36.880615234    
 1561-66-46      2370.0000000        2330.8088379        39.191162109    
 1561-71-39      2389.0000000        2349.8889160        39.111083984    
 1561-71-365     2389.0000000        2350.7309570        38.269042969    
 1571-2-94       2432.0000000        2479.1223145       -47.122314453    
 1572-48-356     2300.0000000        2367.2380371       -67.238037109    
 1572-56-6       2274.0000000        2350.5090332       -76.509033203    
 1572-61-26      2244.0000000        2331.0895996       -87.089599609    
 1572-66-12      2245.0000000        2328.0861816       -83.086181641    
 1572-71-48      2258.0000000        2338.4804688       -80.480468750    
 1572-71-365     2261.0000000        2340.1062012       -79.106201172    
 1549-21-319     2437.0000000        2472.4160156       -35.416015625    
 1549-56-6       2281.0000000        2359.2919922       -78.291992188    
 1549-60-356     2224.0000000        2334.2485352       -110.24853516    
 1549-65-350     2214.0000000        2328.7683105       -114.76831055    
 1549-71-67      2262.0000000        2344.5461426       -82.546142578    
 1549-71-365     2261.0000000        2345.7370605       -84.737060547    
 1547-27-62      2388.0000000        2452.0412598       -64.041259766    
 1521-42-355     2372.0000000        2401.0993652       -29.099365234    
 1521-48-350     2352.0000000        2375.0437012       -23.043701172    
 1521-55-360     2338.0000000        2355.0065918       -17.006591797    
 1521-60-356     2321.0000000        2339.1386719       -18.138671875    
 1521-66-46      2311.0000000        2332.6369629       -21.636962891    
 1521-71-48      2316.0000000        2339.6062012       -23.606201172    
 1521-71-365     2317.0000000        2341.1452637       -24.145263672    
 1573-48-356     2281.0000000        2339.4401855       -58.440185547    
 1573-55-360     2268.0000000        2323.8779297       -55.877929688    
 1573-60-357     2244.0000000        2312.4338379       -68.433837891    
 1573-66-54      2243.0000000        2311.5219727       -68.521972656    
 1573-71-19      2248.0000000        2316.2163086       -68.216308594    
 1573-71-365     2252.0000000        2317.9704590       -65.970458984    
 1545-32-77      2351.0000000        2397.0722656       -46.072265625    
 1545-42-356     2319.0000000        2365.5234375       -46.523437500    
 1545-48-350     2289.0000000        2340.9162598       -51.916259766    
 1545-56-11      2270.0000000        2324.9086914       -54.908691406    
 1545-61-14      2247.0000000        2312.7712402       -65.771240234    
 1545-66-54      2248.0000000        2312.4125977       -64.412597656    
 1545-71-19      2254.0000000        2316.3923340       -62.392333984    
 1545-71-365     2257.0000000        2318.2426758       -61.242675781    
 1535-42-356     2320.0000000        2372.5739746       -52.573974609    
 1535-48-350     2292.0000000        2348.3413086       -56.341308594    
 1535-56-11      2272.0000000        2330.5285645       -58.528564453    
 1535-60-357     2251.0000000        2318.7392578       -67.739257812    
 1535-66-47      2250.0000000        2316.7102051       -66.710205078    
 1535-71-19      2256.0000000        2320.6269531       -64.626953125    
 1535-71-365     2259.0000000        2322.5678711       -63.567871094    
 1507-42-356     2326.0000000        2369.2255859       -43.225585938    
 1507-48-350     2302.0000000        2346.5888672       -44.588867188    
 1507-56-11      2271.0000000        2329.7094727       -58.709472656    
 1507-60-357     2251.0000000        2316.6176758       -65.617675781    
 1507-66-54      2262.0000000        2316.4960938       -54.496093750    
 1507-71-19      2264.0000000        2318.7761230       -54.776123047    
 1507-71-365     2267.0000000        2320.5830078       -53.583007812    
 1523-16-54      2421.0000000        2449.7551270       -28.755126953    
 1575-22-81      2393.0000000        2415.9272461       -22.927246094    
 1575-32-77      2347.0000000        2382.3923340       -35.392333984    
 1575-42-356     2309.0000000        2349.4326172       -40.432617188    
 1575-48-350     2282.0000000        2321.7763672       -39.776367188    
 1575-55-343     2259.0000000        2311.5322266       -52.532226562    
 1575-61-11      2235.0000000        2298.3532715       -63.353271484    
 1575-71-365     2245.0000000        2308.1340332       -63.134033203    
 1577-22-81      2388.0000000        2402.2817383       -14.281738281    
 1580-42-355     2298.0000000        2334.1323242       -36.132324219    
 1580-48-355     2264.0000000        2303.8735352       -39.873535156    
 1580-56-13      2247.0000000        2295.8474121       -48.847412109    
 1580-61-12      2227.0000000        2281.6015625       -54.601562500    
 1580-66-54      2229.0000000        2288.2814941       -59.281494141    
 1580-71-365     2239.0000000        2295.7514648       -56.751464844    
 1536-17-79      2407.0000000        2418.0998535       -11.099853516    
 1536-22-82      2382.0000000        2398.0100098       -16.010009766    
 1536-32-77      2338.0000000        2365.3923340       -27.392333984    
 1536-42-356     2301.0000000        2333.0312500       -32.031250000    
 1536-48-350     2273.0000000        2303.5568848       -30.556884766    
 1536-55-340     2255.0000000        2293.4418945       -38.441894531    
 1536-66-54      2231.0000000        2286.4277344       -55.427734375    
 1536-71-365     2239.0000000        2293.0354004       -54.035400391    
 1516-42-356     2308.0000000        2345.4431152       -37.443115234    
 1516-48-350     2286.0000000        2319.1999512       -33.199951172    
 1516-56-11      2261.0000000        2305.8349609       -44.834960938    
 1516-61-27      2234.0000000        2287.4243164       -53.424316406    
 1516-66-54      2242.0000000        2296.5839844       -54.583984375    
 1516-71-365     2249.0000000        2302.2770996       -53.277099609    
 1528-22-82      2382.0000000        2413.3020020       -31.302001953    
 1528-27-63      2368.0000000        2390.1938477       -22.193847656    
 1528-32-77      2344.0000000        2379.0441895       -35.044189453    
 1528-65-350     2242.0000000        2301.1616211       -59.161621094    
 1528-71-365     2251.0000000        2306.5451660       -55.545166016    
 1514-42-356     2309.0000000        2356.7343750       -47.734375000    
 1514-48-350     2287.0000000        2332.0393066       -45.039306641    
 1514-55-340     2267.0000000        2317.4943848       -50.494384766    
 1514-61-27      2237.0000000        2300.4750977       -63.475097656    
 1514-66-54      2245.0000000        2306.0007324       -61.000732422    
 1514-71-48      2248.0000000        2309.2307129       -61.230712891    
 1514-71-365     2252.0000000        2311.1665039       -59.166503906    
 1495-42-356     2327.0000000        2373.9846191       -46.984619141    
 1495-48-350     2304.0000000        2351.8183594       -47.818359375    
 1495-55-343     2283.0000000        2334.2924805       -51.292480469    
 1495-61-41      2259.0000000        2321.2429199       -62.242919922    
 1495-66-54      2265.0000000        2320.3728027       -55.372802734    
 1495-71-19      2266.0000000        2322.1909180       -56.190917969    
 1495-71-365     2269.0000000        2323.7055664       -54.705566406    
 1484-37-343     2324.0000000        2376.9062500       -52.906250000    
 1484-42-356     2322.0000000        2370.7338867       -48.733886719    
 1484-56-11      2270.0000000        2331.7995605       -61.799560547    
 1484-60-357     2250.0000000        2318.1562500       -68.156250000    
 1484-66-53      2257.0000000        2318.3850098       -61.385009766    
 1484-71-19      2258.0000000        2319.7778320       -61.777832031    
 1484-71-365     2265.0000000        2321.2167969       -56.216796875    
 1463-56-34      2297.0000000        2336.0451660       -39.045166016    
 1463-60-357     2276.0000000        2323.3469238       -47.346923828    
 1463-66-53      2277.0000000        2322.2126465       -45.212646484    
 1463-71-19      2276.0000000        2322.9370117       -46.937011719    
 1463-71-365     2278.0000000        2323.9846191       -45.984619141    
 1483-42-355     2409.0000000        2418.8542480       -9.8542480469    
 1483-48-348     2395.0000000        2393.3669434        1.6330566406    
 1483-56-6       2382.0000000        2374.2973633        7.7026367188    
 1483-60-357     2365.0000000        2358.5712891        6.4287109375    
 1483-66-46      2356.0000000        2347.7822266        8.2177734375    
 1483-71-35      2356.0000000        2351.8198242        4.1801757812    
 1483-71-365     2356.0000000        2352.5991211        3.4008789062    
 1437-16-300     2470.0000000        2482.4018555       -12.401855469    
 1437-22-32      2449.0000000        2475.5373535       -26.537353516    
 1437-27-12      2454.0000000        2465.4311523       -11.431152344    
 1438-42-362     2383.0000000        2410.2761230       -27.276123047    
 1438-56-20      2383.0000000        2368.9128418        14.087158203    
 1438-61-53      2377.0000000        2359.7614746        17.238525391    
 1438-66-32      2368.0000000        2348.8918457        19.108154297    
 1438-71-40      2365.0000000        2348.4719238        16.528076172    
 1445-27-76      2457.0000000        2477.9929199       -20.992919922    
 1445-32-55      2454.0000000        2467.3149414       -13.314941406    
 1445-42-356     2429.0000000        2424.7036133        4.2963867188    
 1445-48-348     2419.0000000        2401.4353027        17.564697266    
 1445-55-360     2412.0000000        2380.9326172        31.067382812    
 1445-60-357     2392.0000000        2367.3125000        24.687500000    
 1445-66-1       2384.0000000        2355.2014160        28.798583984    
 1445-71-35      2382.0000000        2356.0556641        25.944335938    
 1445-71-365     2381.0000000        2356.4243164        24.575683594    
 1489-32-63      2477.0000000        2479.7011719       -2.7011718750    
 1489-42-355     2437.0000000        2428.3713379        8.6286621094    
 1489-48-348     2415.0000000        2396.8452148        18.154785156    
 1489-55-353     2411.0000000        2384.3752441        26.624755859    
 1489-61-28      2385.0000000        2360.3186035        24.681396484    
 1489-66-39      2384.0000000        2350.4746094        33.525390625    
 1489-71-22      2387.0000000        2355.1611328        31.838867188    
 1489-71-365     2387.0000000        2357.1564941        29.843505859    
 1469-42-355     2488.0000000        2438.5288086        49.471191406    
 1469-48-348     2462.0000000        2407.1054688        54.894531250    
 1469-55-357     2471.0000000        2393.9609375        77.039062500    
 1469-61-54      2436.0000000        2367.2827148        68.717285156    
 1494-66-46      2436.0000000        2354.7307129        81.269287109    
 1469-71-71      2437.0000000        2359.6752930        77.324707031    
 1469-71-365     2438.0000000        2361.4340820        76.565917969    
 1464-12-102     2539.0000000        2514.5798340        24.420166016    
 1464-32-63      2521.0000000        2497.3955078        23.604492188    
 1464-42-354     2480.0000000        2446.8513184        33.148681641    
 1439-37-90      2487.0000000        2466.0212402        20.978759766    
 1439-42-355     2474.0000000        2444.7529297        29.247070312    
 1439-48-348     2451.0000000        2411.6074219        39.392578125    
 1439-56-6       2453.0000000        2401.1037598        51.896240234    
 1439-61-28      2422.0000000        2370.7756348        51.224365234    
 1439-66-46      2429.0000000        2365.6166992        63.383300781    
 1439-71-71      2424.0000000        2363.8923340        60.107666016    
 1439-71-365     2426.0000000        2365.4528809        60.547119141    
 1435-42-355     2478.0000000        2447.7856445        30.214355469    
 1435-48-348     2456.0000000        2411.7871094        44.212890625    
 1435-55-361     2461.0000000        2406.1816406        54.818359375    
 1435-61-11      2440.0000000        2369.5449219        70.455078125    
 1435-66-49      2431.0000000        2369.1440430        61.855957031    
 1435-71-71      2426.0000000        2365.2685547        60.731445312    
 1435-71-365     2429.0000000        2367.1076660        61.892333984    
 1449-37-30      2521.0000000        2553.1621094       -32.162109375    
 1414-7-138      2553.0000000        2586.6225586       -33.622558594    
 1414-32-64      2546.0000000        2581.2863770       -35.286376953    
 1414-38-60      2536.0000000        2576.1164551       -40.116455078    
 1414-42-354     2520.0000000        2569.1730957       -49.173095703    
 1379-71-356     2481.0000000        2514.5424805       -33.542480469    
 1425-2-94       2555.0000000        2550.7480469        4.2519531250    
 1425-16-359     2546.0000000        2548.8527832       -2.8527832031    
 1425-22-32      2543.0000000        2547.2014160       -4.2014160156    
 1425-27-12      2529.0000000        2545.8669434       -16.866943359    
 1382-42-355     2493.0000000        2488.4604492        4.5395507812    
 1382-48-348     2482.0000000        2471.2036133        10.796386719    
 1382-56-6       2480.0000000        2456.0449219        23.955078125    
 1382-61-54      2469.0000000        2443.9943848        25.005615234    
 1382-66-46      2455.0000000        2432.7072754        22.292724609    
 1382-71-22      2447.0000000        2427.5490723        19.450927734    
 1382-71-365     2447.0000000        2426.1418457        20.858154297    
 1413-32-64      2464.0000000        2459.6235352        4.3764648438    
 1413-37-48      2451.0000000        2441.1013184        9.8986816406    
 1413-56-6       2328.0000000        2387.2438965       -59.243896484    
 1413-61-26      2424.0000000        2377.8349609        46.165039062    
 1413-66-53      2410.0000000        2365.4255371        44.574462891    
 1413-71-48      2401.0000000        2362.2680664        38.731933594    
 1395-32-64      2455.0000000        2452.7175293        2.2824707031    
 1395-42-355     2427.0000000        2423.0859375        3.9140625000    
 1395-48-348     2425.0000000        2406.4038086        18.596191406    
 1395-56-6       2418.0000000        2387.8073730        30.192626953    
 1395-61-26      2413.0000000        2377.9868164        35.013183594    
 1395-66-1       2404.0000000        2367.5605469        36.439453125    
 1395-71-48      2398.0000000        2362.3935547        35.606445312    
 1395-71-365     2396.0000000        2361.9570312        34.042968750    
 1377-35-16      2432.0000000        2444.0297852       -12.029785156    
 1377-42-355     2423.0000000        2427.5871582       -4.5871582031    
 1377-48-348     2420.0000000        2414.1674805        5.8325195312    
 1377-56-6       2414.0000000        2395.3576660        18.642333984    
 1377-61-26      2408.0000000        2384.7656250        23.234375000    
 1377-66-53      2401.0000000        2374.7868652        26.213134766    
 1377-71-365     2394.0000000        2368.4545898        25.545410156    
 1394-42-355     2458.0000000        2442.4567871        15.543212891    
 1394-48-348     2453.0000000        2426.8666992        26.133300781    
 1394-56-6       2446.0000000        2406.4921875        39.507812500    
 1394-61-26      2438.0000000        2396.9382324        41.061767578    
 1394-66-53      2427.0000000        2383.4299316        43.570068359    
 1394-71-365     2418.0000000        2378.6655273        39.334472656    
 1375-32-64      2490.0000000        2486.6784668        3.3215332031    
 1375-42-355     2474.0000000        2456.4228516        17.577148438    
 1375-48-348     2471.0000000        2444.2995605        26.700439453    
 1375-56-6       2464.0000000        2425.0354004        38.964599609    
 1375-61-26      2457.0000000        2415.6633301        41.336669922    
 1375-66-53      2446.0000000        2403.3818359        42.618164062    
 1375-71-365     2437.0000000        2396.3513184        40.648681641    
 1396-17-90      2452.0000000        2457.8901367       -5.8901367188    
 1396-22-81      2425.0000000        2443.9331055       -18.933105469    
 1396-32-63      2415.0000000        2423.6474609       -8.6474609375    
 1396-42-355     2389.0000000        2398.1972656       -9.1972656250    
 1396-48-350     2386.0000000        2383.4011230        2.5988769531    
 1396-56-11      2379.0000000        2365.3320312        13.667968750    
 1396-61-26      2365.0000000        2353.2507324        11.749267578    
 1396-66-53      2360.0000000        2345.9206543        14.079345703    
 1396-71-365     2352.0000000        2342.5197754        9.4802246094    
 1415-22-82      2419.0000000        2428.4335938       -9.4335937500    
 1415-32-63      2387.0000000        2405.1721191       -18.172119141    
 1415-37-90      2374.0000000        2393.7751465       -19.775146484    
 1415-42-355     2364.0000000        2382.2092285       -18.209228516    
 1415-48-350     2358.0000000        2366.6091309       -8.6091308594    
 1415-56-11      2354.0000000        2348.5507812        5.4492187500    
 1415-61-27      2338.0000000        2335.4663086        2.5336914062    
 1415-66-49      2329.0000000        2330.0336914       -1.0336914062    
 1415-71-365     2322.0000000        2328.9328613       -6.9328613281    
 1323-2-88       2488.0000000        2493.8684082       -5.8684082031    
 1368-17-85      2462.0000000        2463.9177246       -1.9177246094    
 1368-22-81      2445.0000000        2449.9201660       -4.9201660156    
 1368-27-15      2436.0000000        2442.0729980       -6.0729980469    
 1368-42-355     2399.0000000        2407.9772949       -8.9772949219    
 1368-55-339     2388.0000000        2377.8190918        10.180908203    
 1368-66-49      2374.0000000        2357.4548340        16.545166016    
 1368-71-365     2362.0000000        2351.8520508        10.147949219    
 1327-71-365     2447.0000000        2407.5158691        39.484130859    
 1369-71-365     2420.0000000        2382.7402344        37.259765625    
 1326-71-365     2429.0000000        2395.2775879        33.722412109    
 1302-71-365     2442.0000000        2410.2116699        31.788330078    
 1269-37-48      2533.0000000        2551.6757812       -18.675781250    
 1269-66-1       2514.0000000        2505.5715332        8.4284667969    
 1269-71-365     2500.0000000        2496.2661133        3.7338867188    
 1277-66-59      2516.0000000        2504.5644531        11.435546875    
 1330-48-345     2523.0000000        2519.8520508        3.1479492188    
 1330-56-17      2523.0000000        2506.6860352        16.313964844    
 1322-2-94       2574.0000000        2554.1264648        19.873535156    
 1331-48-345     2533.0000000        2526.3276367        6.6723632812    
 1331-56-17      2532.0000000        2513.6352539        18.364746094    
 1331-61-54      2528.0000000        2506.4194336        21.580566406    
 1331-66-32      2513.0000000        2494.3737793        18.626220703    
 1331-71-40      2500.0000000        2488.0993652        11.900634766    
 1276-12-99      2565.0000000        2601.7729492       -36.772949219    
 1276-17-90      2570.0000000        2601.2170410       -31.217041016    
 1771-33-65      2644.0000000        2641.3535156        2.6464843750    
 1880-42-356     2637.0000000        2639.3041992       -2.3041992188    
 1880-48-335     2636.0000000        2686.1364746       -50.136474609    
 1880-61-60      2632.0000000        2651.8676758       -19.867675781    
 1880-66-25      2633.0000000        2642.6694336       -9.6694335938    
 1735-34-152     2644.0000000        2640.7202148        3.2797851562    
 1840-16-362     2630.0000000        2619.3510742        10.648925781    
 1794-3-36       2640.0000000        2642.7866211       -2.7866210938    
 1794-16-362     2640.0000000        2637.8925781        2.1074218750    
 1794-27-12      2642.0000000        2642.3571777      -0.35717773438    
 1794-71-39      2640.0000000        2642.6113281       -2.6113281250    
 1794-71-365     2635.0000000        2644.7075195       -9.7075195312    
 1796-16-362     2635.0000000        2622.5144043        12.485595703    
 1806-55-348     2639.0000000        2659.7780762       -20.778076172    
 1806-60-364     2635.0000000        2639.9592285       -4.9592285156    
 1806-66-1       2629.0000000        2632.0361328       -3.0361328125    
 1806-71-39      2638.0000000        2634.9533691        3.0466308594    
 1806-71-365     2635.0000000        2637.0761719       -2.0761718750    
 1788-55-348     2637.0000000        2657.5402832       -20.540283203    
 1788-60-364     2632.0000000        2638.5854492       -6.5854492188    
 1788-66-21      2631.0000000        2632.9982910       -1.9982910156    
 1788-71-39      2631.0000000        2638.4797363       -7.4797363281    
 1788-71-365     2633.0000000        2640.8869629       -7.8869628906    
 1782-42-355     2633.0000000        2630.6142578        2.3857421875    
 1782-48-348     2631.0000000        2674.0688477       -43.068847656    
 1782-55-348     2635.0000000        2659.6464844       -24.646484375    
 1782-60-364     2631.0000000        2639.9265137       -8.9265136719    
 1782-66-28      2628.0000000        2632.4992676       -4.4992675781    
 1782-71-39      2628.0000000        2638.6713867       -10.671386719    
 1782-71-365     2631.0000000        2641.0927734       -10.092773438    
 1807-66-28      2633.0000000        2633.1623535      -0.16235351562    
 1807-71-39      2634.0000000        2637.9692383       -3.9692382812    
 1807-71-365     2634.0000000        2640.3386230       -6.3386230469    
 1896-55-348     2594.0000000        2618.8518066       -24.851806641    
 1881-71-39      2601.0000000        2594.7446289        6.2553710938    
 1881-71-365     2589.0000000        2597.5688477       -8.5688476562    
 1841-1-357      2580.0000000        2585.3347168       -5.3347167969    
 1773-34-91      2602.0000000        2595.1176758        6.8823242188    
 1821-48-302     2600.0000000        2644.7504883       -44.750488281    
 1798-16-362     2587.0000000        2606.7385254       -19.738525391    
 1797-48-348     2599.0000000        2649.2375488       -50.237548828    
 1797-55-348     2605.0000000        2641.6337891       -36.633789062    
 1797-60-354     2596.0000000        2622.4753418       -26.475341797    
 1797-66-28      2599.0000000        2611.9638672       -12.963867188    
 1797-71-39      2603.0000000        2613.5434570       -10.543457031    
 1797-71-365     2602.0000000        2615.1081543       -13.108154297    
 1789-42-356     2598.0000000        2614.0388184       -16.038818359    
 1789-55-348     2598.0000000        2641.4890137       -43.489013672    
 1789-60-364     2591.0000000        2622.2648926       -31.264892578    
 1789-66-28      2592.0000000        2611.8476562       -19.847656250    
 1789-71-39      2594.0000000        2613.7160645       -19.716064453    
 1789-71-365     2596.0000000        2615.1401367       -19.140136719    
 1780-66-28      2599.0000000        2611.9638672       -12.963867188    
 1780-71-39      2602.0000000        2613.5434570       -11.543457031    
 1780-71-365     2604.0000000        2615.1081543       -11.108154297    
 1799-42-356     2601.0000000        2600.7231445       0.27685546875    
 1799-48-335     2589.0000000        2631.0520020       -42.052001953    
 1736-34-152     2616.0000000        2602.5866699        13.413330078    
 1613-42-355     2568.0000000        2575.9519043       -7.9519042969    
 1613-48-348     2573.0000000        2578.6645508       -5.6645507812    
 1613-55-348     2537.0000000        2544.8947754       -7.8947753906    
 1613-61-41      2504.0000000        2523.6433105       -19.643310547    
 1613-66-12      2480.0000000        2507.5371094       -27.537109375    
 1613-71-22      2473.0000000        2513.6210938       -40.621093750    
 1613-71-365     2471.0000000        2512.2443848       -41.244384766    
 1606-55-348     2541.0000000        2553.6774902       -12.677490234    
 1606-61-41      2508.0000000        2532.2888184       -24.288818359    
 1606-66-12      2483.0000000        2517.2414551       -34.241455078    
 1606-71-22      2477.0000000        2524.7819824       -47.781982422    
 1606-71-365     2475.0000000        2523.1679688       -48.167968750    
 1620-2-90       2690.0000000        2620.6689453        69.331054688    
 1620-12-324     2672.0000000        2620.1464844        51.853515625    
 1620-16-362     2671.0000000        2619.5190430        51.480957031    
 1705-48-335     2651.0000000        2708.1279297       -57.127929688    
 1705-56-16      2668.0000000        2693.0798340       -25.079833984    
 1705-61-60      2643.0000000        2672.2290039       -29.229003906    
 1705-66-25      2663.0000000        2660.9096680        2.0903320312    
 1530-48-335     2610.0000000        2662.3547363       -52.354736328    
 1530-56-16      2698.0000000        2654.3537598        43.646240234    
 1530-61-60      2732.0000000        2646.2011719        85.798828125    
 1434-37-27      2699.0000000        2640.5063477        58.493652344    
 1434-42-356     2704.0000000        2636.4501953        67.549804688    
 1434-56-17      2711.0000000        2619.5686035        91.431396484    
 1434-60-321     2712.0000000        2611.5341797        100.46582031    
 1434-65-298     2716.0000000        2603.1608887        112.83911133    
 1434-71-365     2715.0000000        2595.4426270        119.55737305    
 1384-48-335     2782.0000000        2759.5793457        22.420654297    
 1344-48-348     2732.0000000        2715.3576660        16.642333984    
 1344-55-348     2741.0000000        2712.0119629        28.988037109    
 1344-61-41      2745.0000000        2710.3122559        34.687744141    
 1344-66-5       2740.0000000        2708.7954102        31.204589844    
 1344-71-356     2734.0000000        2705.6711426        28.328857422    
 1354-2-93       2721.0000000        2685.6877441        35.312255859    
 1354-7-52       2719.0000000        2685.6452637        33.354736328    
 1354-12-102     2718.0000000        2685.4587402        32.541259766    
 1354-17-71      2715.0000000        2685.1210938        29.878906250    
 1354-22-32      2708.0000000        2684.5810547        23.418945312    
 1354-32-90      2708.0000000        2684.6413574        23.358642578    
 1354-38-60      2700.0000000        2684.5805664        15.419433594    
 1358-32-90      2708.0000000        2673.9875488        34.012451172    
 1358-48-336     2704.0000000        2668.1608887        35.839111328    
 846-17-5        2368.0000000        2370.6594238       -2.6594238281    
 846-22-33       2362.0000000        2359.0251465        2.9748535156    
 846-48-348      2367.0000000        2361.8693848        5.1306152344    
 846-61-25       2372.0000000        2359.4990234        12.500976562    
 846-65-362      2372.0000000        2355.9743652        16.025634766    
 846-71-365      2376.0000000        2356.6574707        19.342529297    
 829-48-348      2368.0000000        2374.4079590       -6.4079589844    
 829-55-353      2372.0000000        2372.8488770      -0.84887695312    
 829-61-35       2375.0000000        2374.1091309       0.89086914062    
 829-65-362      2373.0000000        2370.7756348        2.2243652344    
 829-71-365      2379.0000000        2372.0034180        6.9965820312    
 839-12-121      2371.0000000        2383.3706055       -12.370605469    
 839-71-365      2370.0000000        2360.8654785        9.1345214844    
 817-1-220       2378.0000000        2393.1562500       -15.156250000    
 817-6-331       2379.0000000        2391.2749023       -12.274902344    
 817-12-8        2379.0000000        2387.8491211       -8.8491210938    
 813-32-87       2359.0000000        2367.6262207       -8.6262207031    
 813-37-33       2360.0000000        2367.7011719       -7.7011718750    
 813-42-350      2369.0000000        2371.1779785       -2.1779785156    
 813-48-348      2377.0000000        2375.3908691        1.6091308594    
 813-56-17       2381.0000000        2373.7331543        7.2668457031    
 813-60-323      2381.0000000        2375.6960449        5.3039550781    
 813-65-301      2379.0000000        2372.0600586        6.9399414062    
 813-71-365      2386.0000000        2373.4433594        12.556640625    
 818-17-5        2377.0000000        2385.8718262       -8.8718261719    
 820-1-108       2362.0000000        2378.0310059       -16.031005859    
 812-17-5        2369.0000000        2379.6240234       -10.624023438    
 812-36-157      2336.0000000        2361.1240234       -25.124023438    
 812-56-17       2373.0000000        2363.1799316        9.8200683594    
 812-61-61       2364.0000000        2364.1501465      -0.15014648438    
 812-66-19       2373.0000000        2361.4121094        11.587890625    
 811-56-19       2372.0000000        2364.0546875        7.9453125000    
 811-66-20       2372.0000000        2362.4877930        9.5122070312    
 796-65-362      2378.0000000        2360.2207031        17.779296875    
 796-71-365      2379.0000000        2359.7009277        19.299072266    
 833-8-18        2360.0000000        2361.0554199       -1.0554199219    
 822-1-63        2365.0000000        2366.7041016       -1.7041015625    
 830-1-365       2364.0000000        2357.2138672        6.7861328125    
 821-56-17       2359.0000000        2337.0380859        21.961914062    
 821-61-61       2360.0000000        2336.8508301        23.149169922    
 845-1-73        2315.0000000        2289.8723145        25.127685547    
 845-7-2         2316.0000000        2289.8842773        26.115722656    
 845-11-272      2315.0000000        2289.1147461        25.885253906    
 845-16-318      2306.0000000        2286.5249023        19.475097656    
 845-22-33       2308.0000000        2281.7360840        26.263916016    
 845-31-351      2303.0000000        2274.9521484        28.047851562    
 845-36-62       2300.0000000        2270.4504395        29.549560547    
 845-42-350      2299.0000000        2263.0073242        35.992675781    
 845-48-348      2301.0000000        2261.5312500        39.468750000    
 845-56-19       2310.0000000        2258.7551270        51.244873047    
 845-60-323      2310.0000000        2256.3745117        53.625488281    
 845-65-301      2309.0000000        2253.4238281        55.576171875    
 845-71-13       2316.0000000        2249.8132324        66.186767578    
 1183-16-315     2059.0000000        2079.4721680       -20.472167969    
 1183-26-354     2042.0000000        2052.0541992       -10.054199219    
 1183-31-362     2037.0000000        2040.9550781       -3.9550781250    
 1183-36-356     2032.0000000        2030.8375244        1.1624755859    
 1183-42-350     2023.0000000        2023.0893555      -8.93554687500E-02
 1183-48-348     2015.0000000        2017.8183594       -2.8183593750    
 1183-66-25      1980.0000000        1982.0316162       -2.0316162109    
 1183-71-365     2002.0000000        1996.9049072        5.0950927734    
 1190-56-23      2001.0000000        2003.5440674       -2.5440673828    
 1190-61-54      1992.0000000        1989.0562744        2.9437255859    
 1190-66-25      1979.0000000        1976.3527832        2.6472167969    
 1186-3-344      2064.0000000        2082.3339844       -18.333984375    
 1186-5-69       2064.0000000        2082.0820312       -18.082031250    
 1186-17-6       2057.0000000        2075.5556641       -18.555664062    
 1185-10-213     2065.0000000        2081.2814941       -16.281494141    
 1178-38-335     2020.0000000        2020.1632080      -0.16320800781    
 1178-42-349     2004.0000000        2012.6417236       -8.6417236328    
 1178-48-349     1996.0000000        2005.4355469       -9.4355468750    
 1178-55-353     1980.0000000        1991.7091064       -11.709106445    
 1178-61-21      1956.0000000        1970.1872559       -14.187255859    
 1178-66-34      1939.0000000        1957.7075195       -18.707519531    
 1178-71-365     1990.0000000        1987.2377930        2.7622070312    
 1182-66-25      1954.0000000        1962.7982178       -8.7982177734    
 1132-12-4       2069.0000000        2090.9624023       -21.962402344    
 1134-1-73       2069.0000000        2090.6210938       -21.621093750    
 1148-17-12      2046.0000000        2079.2170410       -33.217041016    
 1148-21-356     2038.0000000        2064.9899902       -26.989990234    
 1148-27-27      2033.0000000        2053.6628418       -20.662841797    
 1148-31-348     2027.0000000        2044.3594971       -17.359497070    
 1148-37-23      2022.0000000        2033.9316406       -11.931640625    
 1148-42-349     2011.0000000        2029.9451904       -18.945190430    
 1148-48-348     2000.0000000        2022.0695801       -22.069580078    
 1148-55-353     1979.0000000        1999.4960938       -20.496093750    
 1148-61-34      1951.0000000        1971.0809326       -20.080932617    
 1148-66-6       1935.0000000        1962.0751953       -27.075195312    
 1148-71-365     1952.0000000        1972.7746582       -20.774658203    
 1177-35-321     2025.0000000        2024.2792969       0.72070312500    
 1177-42-349     2007.0000000        2015.4509277       -8.4509277344    
 1177-48-348     1997.0000000        2007.2574463       -10.257446289    
 1177-55-353     1979.0000000        1990.5935059       -11.593505859    
 1177-61-21      1949.0000000        1964.5451660       -15.545166016    
 1177-66-34      1937.0000000        1955.8101807       -18.810180664    
 1177-71-50      1949.0000000        1965.4039307       -16.403930664    
 1105-12-4       2060.0000000        2093.8740234       -33.874023438    
 1105-16-333     2053.0000000        2088.1564941       -35.156494141    
 1105-21-356     2044.0000000        2072.1916504       -28.191650391    
 1106-42-349     2018.0000000        2038.9599609       -20.959960938    
 1106-55-353     1984.0000000        2008.9921875       -24.992187500    
 1106-61-13      1958.0000000        1981.9826660       -23.982666016    
 1106-66-6       1939.0000000        1971.1536865       -32.153686523    
 1106-71-365     1953.0000000        1981.9160156       -28.916015625    
 1102-66-6       1941.0000000        1974.7941895       -33.794189453    
 1102-71-365     1950.0000000        1983.2764893       -33.276489258    
 1120-3-152      2054.0000000        2091.6989746       -37.698974609    
 1089-42-349     2026.0000000        2033.9089355       -7.9089355469    
 1089-48-349     2010.0000000        2023.1293945       -13.129394531    
 1089-55-353     1994.0000000        2005.9471436       -11.947143555    
 1089-61-34      1975.0000000        1981.4943848       -6.4943847656    
 1089-66-6       1960.0000000        1972.0902100       -12.090209961    
 1089-71-365     1971.0000000        1984.3009033       -13.300903320    
 1093-66-6       1959.0000000        1972.0573730       -13.057373047    
 1093-71-365     1971.0000000        1984.4414062       -13.441406250    
 1087-48-349     1998.0000000        2025.6553955       -27.655395508    
 1087-61-24      1992.0000000        1989.4564209        2.5435791016    
 1087-71-70      1979.0000000        1986.0799561       -7.0799560547    
 1097-15-1       2056.0000000        2099.2590332       -43.259033203    
 996-26-315      2108.0000000        2101.5202637        6.4797363281    
 996-48-349      2065.0000000        2050.5244141        14.475585938    
 996-55-353      2055.0000000        2037.2000732        17.799926758    
 996-61-11       2037.0000000        2015.6979980        21.302001953    
 996-66-6        2034.0000000        2010.9520264        23.047973633    
 996-71-365      2036.0000000        2016.9661865        19.033813477    
 995-39-335      2084.0000000        2062.4133301        21.586669922    
 995-42-349      2064.0000000        2055.5346680        8.4653320312    
 995-55-353      2044.0000000        2031.0175781        12.982421875    
 995-61-34       2030.0000000        2009.3966064        20.603393555    
 995-66-6        2019.0000000        2000.5278320        18.472167969    
 995-71-365      2033.0000000        2006.7686768        26.231323242    
 1090-12-5       2086.0000000        2109.5246582       -23.524658203    
 1090-17-5       2083.0000000        2106.4931641       -23.493164062    
 969-56-19       2115.0000000        2137.0395508       -22.039550781    
 969-71-365      2107.0000000        2119.6982422       -12.698242188    
 983-42-349      2090.0000000        2083.1506348        6.8493652344    
 983-55-353      2067.0000000        2064.4470215        2.5529785156    
 983-61-34       2057.0000000        2050.7299805        6.2700195312    
 983-66-6        2052.0000000        2041.7974854        10.202514648    
 983-71-365      2058.0000000        2043.9390869        14.060913086    
 982-39-238      2104.0000000        2093.2197266        10.780273438    
 921-42-305      2120.0000000        2097.2255859        22.774414062    
 921-48-349      2116.0000000        2090.6250000        25.375000000    
 921-61-34       2099.0000000        2064.2043457        34.795654297    
 921-65-356      2092.0000000        2055.1572266        36.842773438    
 921-71-365      2090.0000000        2054.8706055        35.129394531    
 924-43-60       2107.0000000        2085.3771973        21.622802734    
 924-48-348      2109.0000000        2080.0793457        28.920654297    
 924-55-353      2097.0000000        2065.0668945        31.933105469    
 924-61-34       2089.0000000        2048.6655273        40.334472656    
 924-66-6        2081.0000000        2037.8078613        43.192138672    
 924-71-365      2078.0000000        2039.6896973        38.310302734    
 909-56-16       2118.0000000        2092.7832031        25.216796875    
 911-34-337      2159.0000000        2134.2729492        24.727050781    
 900-56-19       2180.0000000        2164.3918457        15.608154297    
 900-61-61       2192.0000000        2159.1538086        32.846191406    
 848-56-18       2195.0000000        2183.7189941        11.281005859    
 848-66-28       2195.0000000        2173.2502441        21.749755859    
 826-56-19       2208.0000000        2191.6455078        16.354492188    
 800-61-61       2207.0000000        2192.5039062        14.496093750    
 800-66-28       2194.0000000        2187.5051270        6.4948730469    
 803-33-59       2215.0000000        2216.6909180       -1.6909179688    
 852-2-305       2140.0000000        2153.2915039       -13.291503906    
 1249-56-27      2347.0000000        2314.0263672        32.973632812    
 1249-66-13      2266.0000000        2248.2041016        17.795898438    
 1249-71-365     2273.0000000        2236.2497559        36.750244141    
 1235-22-32      2376.0000000        2379.1750488       -3.1750488281    
 1235-42-362     2298.0000000        2332.7770996       -34.777099609    
 1235-48-357     2338.0000000        2347.6074219       -9.6074218750    
 1235-56-32      2326.0000000        2321.0261230        4.9738769531    
 1238-48-320     2316.0000000        2347.6591797       -31.659179688    
 1238-56-10      2288.0000000        2322.2766113       -34.276611328    
 1238-66-10      2251.0000000        2256.8330078       -5.8330078125    
 1238-71-41      2262.0000000        2242.1013184        19.898681641    
 1238-71-365     2267.0000000        2243.0742188        23.925781250    
 1225-1-365      2430.0000000        2409.5739746        20.426025391    
 1200-56-30      2268.0000000        2341.6276855       -73.627685547    
 1200-66-10      2231.0000000        2282.7021484       -51.702148438    
 1200-71-40      2241.0000000        2269.9411621       -28.941162109    
 1198-71-48      2398.0000000        2274.1477051        123.85229492    
 1262-48-320     2313.0000000        2342.0471191       -29.047119141    
 1262-56-10      2285.0000000        2314.3278809       -29.327880859    
 1262-60-362     2250.0000000        2259.4602051       -9.4602050781    
 1262-66-10      2246.0000000        2243.6354980        2.3645019531    
 1262-71-41      2257.0000000        2227.2392578        29.760742188    
 1263-48-320     2313.0000000        2341.5102539       -28.510253906    
 1263-56-10      2284.0000000        2312.3449707       -28.344970703    
 1263-60-362     2250.0000000        2253.7536621       -3.7536621094    
 1263-66-10      2246.0000000        2239.1264648        6.8735351562    
 1263-71-60      2257.0000000        2227.4025879        29.597412109    
 1263-71-365     2262.0000000        2229.6040039        32.395996094    
 1239-17-44      2388.0000000        2391.2465820       -3.2465820312    
 1239-22-32      2374.0000000        2375.7814941       -1.7814941406    
 1239-43-5       2298.0000000        2331.5395508       -33.539550781    
 1239-48-364     2319.0000000        2346.3093262       -27.309326172    
 1239-56-41      2290.0000000        2319.3876953       -29.387695312    
 1239-60-362     2257.0000000        2269.5490723       -12.549072266    
 1239-66-10      2254.0000000        2253.6101074       0.38989257812    
 1239-71-365     2270.0000000        2244.2519531        25.748046875    
 1232-48-321     2316.0000000        2349.9414062       -33.941406250    
 1232-56-27      2288.0000000        2325.3837891       -37.383789062    
 1232-60-361     2254.0000000        2278.3041992       -24.304199219    
 1232-66-10      2251.0000000        2262.2453613       -11.245361328    
 1232-71-41      2262.0000000        2250.8452148        11.154785156    
 1241-56-27      2287.0000000        2319.0346680       -32.034667969    
 1241-66-10      2250.0000000        2251.6950684       -1.6950683594    
 1241-71-40      2260.0000000        2240.0183105        19.981689453    
 1270-56-30      2282.0000000        2314.7954102       -32.795410156    
 1270-71-42      2255.0000000        2237.5698242        17.430175781    
 1273-43-1       2285.0000000        2324.9020996       -39.902099609    
 1273-48-364     2306.0000000        2340.8896484       -34.889648438    
 1273-56-32      2276.0000000        2317.3117676       -41.311767578    
 1273-60-362     2242.0000000        2268.2287598       -26.228759766    
 1273-65-348     2239.0000000        2253.1083984       -14.108398438    
 1273-71-365     2255.0000000        2245.5798340        9.4201660156    
 1256-1-365      2388.0000000        2394.3154297       -6.3154296875    
 1234-43-5       2295.0000000        2329.0700684       -34.070068359    
 1234-48-364     2316.0000000        2344.8835449       -28.883544922    
 1234-56-32      2288.0000000        2319.2226562       -31.222656250    
 1234-60-362     2254.0000000        2269.4345703       -15.434570312    
 1233-56-32      2288.0000000        2325.9802246       -37.980224609    
 1233-65-337     2255.0000000        2264.4089355       -9.4089355469    
 1233-71-365     2272.0000000        2254.3366699        17.663330078    
 1227-17-44      2392.0000000        2398.6657715       -6.6657714844    
 1227-22-58      2377.0000000        2383.4799805       -6.4799804688    
 1227-31-335     2354.0000000        2367.5134277       -13.513427734    
 1227-43-5       2301.0000000        2338.7268066       -37.726806641    
 1227-48-364     2322.0000000        2356.3146973       -34.314697266    
 1227-56-32      2295.0000000        2334.0983887       -39.098388672    
 1227-61-60      2261.0000000        2291.0703125       -30.070312500    
 1227-71-365     2273.0000000        2264.3239746        8.6760253906    
 1208-1-364      2408.0000000        2410.1171875       -2.1171875000    
 1208-6-360      2405.0000000        2408.5354004       -3.5354003906    
 1208-11-360     2387.0000000        2401.1540527       -14.154052734    
 1208-16-357     2389.0000000        2403.8093262       -14.809326172    
 1208-21-361     2372.0000000        2388.2478027       -16.247802734    
 1208-26-354     2402.0000000        2377.6201172        24.379882812    
 1208-31-362     2395.0000000        2370.4616699        24.538330078    
 1219-22-33      2371.0000000        2384.9821777       -13.982177734    
 1219-33-165     2333.0000000        2360.7717285       -27.771728516    
 1219-42-362     2295.0000000        2340.0205078       -45.020507812    
 1219-48-357     2316.0000000        2355.6198730       -39.619873047    
 1219-56-32      2290.0000000        2332.4904785       -42.490478516    
 1219-60-362     2256.0000000        2288.4824219       -32.482421875    
 1219-66-10      2253.0000000        2271.6328125       -18.632812500    
 1219-71-365     2269.0000000        2260.2294922        8.7705078125    
 1217-56-27      2292.0000000        2334.3774414       -42.377441406    
 1217-71-365     2271.0000000        2262.3217773        8.6782226562    
 1205-33-160     2338.0000000        2367.4648438       -29.464843750    
 1205-42-362     2300.0000000        2346.2802734       -46.280273438    
 1205-48-357     2322.0000000        2361.8562012       -39.856201172    
 1205-56-34      2298.0000000        2340.1611328       -42.161132812    
 1205-66-10      2296.0000000        2281.6306152        14.369384766    
 1231-7-66       2392.0000000        2400.6315918       -8.6315917969    
 1231-12-57      2377.0000000        2392.1015625       -15.101562500    
 1231-17-4       2375.0000000        2397.1103516       -22.110351562    
 1231-22-32      2364.0000000        2380.0961914       -16.096191406    
 1231-27-10      2353.0000000        2371.4311523       -18.431152344    
 1231-31-335     2341.0000000        2364.3701172       -23.370117188    
 1231-37-335     2333.0000000        2334.7871094       -1.7871093750    
 1179-6-115      2415.0000000        2416.4638672       -1.4638671875    
 1168-17-47      2403.0000000        2411.9580078       -8.9580078125    
 1168-22-32      2392.0000000        2399.9040527       -7.9040527344    
 1168-36-335     2315.0000000        2357.7819824       -42.781982422    
 1114-1-365      2440.0000000        2437.4345703        2.5654296875    
 1122-17-47      2418.0000000        2422.3588867       -4.3588867188    
 1122-22-32      2391.0000000        2411.6755371       -20.675537109    
 1122-42-356     2298.0000000        2370.4914551       -72.491455078    
 1122-48-335     2336.0000000        2387.1601562       -51.160156250    
 1140-7-66       2423.0000000        2427.4096680       -4.4096679688    
 1140-12-57      2419.0000000        2418.6931152       0.30688476562    
 1140-17-4       2406.0000000        2419.2136230       -13.213623047    
 1140-22-32      2395.0000000        2409.0356445       -14.035644531    
 1140-31-335     2361.0000000        2388.9287109       -27.928710938    
 1140-36-345     2332.0000000        2368.4951172       -36.495117188    
 1193-48-321     2325.0000000        2367.1821289       -42.182128906    
 1193-56-30      2300.0000000        2346.1818848       -46.181884766    
 1176-48-320     2326.0000000        2370.6884766       -44.688476562    
 1176-56-10      2302.0000000        2350.5837402       -48.583740234    
 1176-60-361     2271.0000000        2312.8837891       -41.883789062    
 1176-66-10      2265.0000000        2294.8828125       -29.882812500    
 1176-71-40      2276.0000000        2279.2705078       -3.2705078125    
 1176-71-365     2282.0000000        2278.9738770        3.0261230469    
 1159-66-10      2352.0000000        2302.9582520        49.041748047    
 1159-71-62      2331.0000000        2288.8664551        42.133544922    
 1159-71-365     2326.0000000        2288.6542969        37.345703125    
 1160-71-62      2408.0000000        2292.1315918        115.86840820    
 1160-71-365     2409.0000000        2291.8061523        117.19384766    
 1147-42-356     2384.0000000        2366.7128906        17.287109375    
 1147-48-335     2391.0000000        2380.1955566        10.804443359    
 1147-56-17      2388.0000000        2362.2622070        25.737792969    
 1141-1-274      2417.0000000        2429.4348145       -12.434814453    
 1141-7-176      2412.0000000        2428.1811523       -16.181152344    
 1141-11-311     2405.0000000        2422.3991699       -17.399169922    
 1141-17-44      2406.0000000        2421.4206543       -15.420654297    
 1141-22-30      2388.0000000        2410.4011230       -22.401123047    
 1141-26-349     2370.0000000        2397.3149414       -27.314941406    
 1141-31-362     2359.0000000        2389.2949219       -30.294921875    
 1141-36-356     2320.0000000        2367.5900879       -47.590087891    
 1141-42-362     2302.0000000        2367.7736816       -65.773681641    
 1141-48-364     2330.0000000        2383.1958008       -53.195800781    
 1141-56-32      2308.0000000        2365.6977539       -57.697753906    
 1141-60-362     2280.0000000        2334.6667480       -54.666748047    
 1141-66-1       2273.0000000        2317.5644531       -44.564453125    
 1141-71-365     2289.0000000        2307.5522461       -18.552246094    
 1121-17-44      2430.0000000        2427.8566895        2.1433105469    
 1121-22-33      2397.0000000        2418.7285156       -21.728515625    
 1121-31-335     2362.0000000        2397.4482422       -35.448242188    
 1121-35-345     2332.0000000        2379.9692383       -47.969238281    
 1121-42-356     2319.0000000        2375.0219727       -56.021972656    
 1121-48-355     2339.0000000        2387.7521973       -48.752197266    
 1121-56-32      2335.0000000        2370.6416016       -35.641601562    
 1121-60-362     2321.0000000        2341.1489258       -20.148925781    
 1121-65-348     2330.0000000        2323.9274902        6.0725097656    
 1121-71-365     2333.0000000        2313.0317383        19.968261719    
 1192-71-55      2429.0000000        2279.4440918        149.55590820    
 1157-48-322     2327.0000000        2375.8642578       -48.864257812    
 1157-56-10      2305.0000000        2356.4575195       -51.457519531    
 1157-60-361     2275.0000000        2322.7687988       -47.768798828    
 1157-66-10      2269.0000000        2304.6625977       -35.662597656    
 1157-71-40      2280.0000000        2290.8195801       -10.819580078    
 1180-48-323     2405.0000000        2369.8442383        35.155761719    
 1167-71-365     2406.0000000        2278.8093262        127.19067383    
 1170-71-365     2406.0000000        2280.6149902        125.38500977    
 1172-71-365     2406.0000000        2281.8742676        124.12573242    
 1163-71-365     2407.0000000        2277.8891602        129.11083984    
 1155-71-365     2404.0000000        2284.2800293        119.71997070    
 1144-71-365     2418.0000000        2301.6987305        116.30126953    
 1080-22-33      2448.0000000        2438.0749512        9.9250488281    
 1080-31-335     2422.0000000        2412.3771973        9.6228027344    
 1080-42-356     2428.0000000        2389.8737793        38.126220703    
 1080-48-355     2431.0000000        2399.9731445        31.026855469    
 1085-42-356     2323.0000000        2387.6315918       -64.631591797    
 1085-48-355     2409.0000000        2397.0366211        11.963378906    
 1091-71-56      2424.0000000        2327.8037109        96.196289062    
 1048-71-365     2439.0000000        2342.7924805        96.207519531    
 1012-71-365     2441.0000000        2354.7644043        86.235595703    
 1039-48-322     2338.0000000        2408.9846191       -70.984619141    
 1039-56-30      2315.0000000        2393.5053711       -78.505371094    
 1039-60-362     2288.0000000        2374.7009277       -86.700927734    
 1039-66-13      2281.0000000        2359.4272461       -78.427246094    
 1039-71-365     2299.0000000        2351.0495605       -52.049560547    
 1040-71-365     2448.0000000        2351.5063477        96.493652344    
 1075-17-44      2442.0000000        2440.7331543        1.2668457031    
 1075-22-33      2435.0000000        2432.3210449        2.6789550781    
 1075-31-335     2413.0000000        2409.1682129        3.8317871094    
 1053-42-357     2358.0000000        2390.8928223       -32.892822266    
 1056-48-335     2338.0000000        2402.9035645       -64.903564453    
 1056-56-17      2317.0000000        2385.9370117       -68.937011719    
 1016-17-32      2422.0000000        2449.2685547       -27.268554688    
 1016-31-335     2366.0000000        2416.9387207       -50.938720703    
 1016-37-319     2356.0000000        2394.8876953       -38.887695312    
 1011-22-33      2391.0000000        2444.7492676       -53.749267578    
 1015-42-356     2311.0000000        2401.0839844       -90.083984375    
 1015-48-337     2332.0000000        2411.5336914       -79.533691406    
 1015-56-19      2335.0000000        2395.9248047       -60.924804688    
 1015-61-53      2295.0000000        2373.0056152       -78.005615234    
 1015-66-32      2286.0000000        2357.1779785       -71.177978516    
 1094-1-277      2430.0000000        2438.6928711       -8.6928710938    
 1094-6-340      2427.0000000        2438.2084961       -11.208496094    
 1094-10-27      2424.0000000        2432.8159180       -8.8159179688    
 1077-7-176      2432.0000000        2437.7143555       -5.7143554688    
 1063-17-46      2415.0000000        2433.7929688       -18.792968750    
 1063-22-33      2394.0000000        2427.7978516       -33.797851562    
 1034-36-335     2322.0000000        2397.7448730       -75.744873047    
 1034-42-362     2309.0000000        2395.2827148       -86.282714844    
 1034-48-357     2346.0000000        2406.8078613       -60.807861328    
 1034-56-34      2323.0000000        2394.2421875       -71.242187500    
 1034-66-1       2293.0000000        2357.2578125       -64.257812500    
 1034-71-54      2305.0000000        2349.0451660       -44.045166016    
 1034-71-365     2310.0000000        2348.1289062       -38.128906250    
 997-17-46       2437.0000000        2442.7478027       -5.7478027344    
 997-22-33       2420.0000000        2438.6267090       -18.626708984    
 1008-1-121      2454.0000000        2458.0046387       -4.0046386719    
 1049-17-46      2418.0000000        2436.2407227       -18.240722656    
 1049-31-335     2358.0000000        2409.0244141       -51.024414062    
 1049-36-335     2342.0000000        2392.1503906       -50.150390625    
 1049-42-356     2307.0000000        2391.0178223       -84.017822266    
 1049-48-334     2341.0000000        2403.6762695       -62.676269531    
 1049-56-18      2319.0000000        2390.0268555       -71.026855469    
 1049-61-53      2292.0000000        2367.4584961       -75.458496094    
 1007-11-194     2432.0000000        2448.9355469       -16.935546875    
 1007-17-4       2433.0000000        2446.3681641       -13.368164062    
 1007-22-32      2411.0000000        2439.7370605       -28.737060547    
 1007-27-10      2401.0000000        2424.4550781       -23.455078125    
 1007-31-335     2370.0000000        2417.7880859       -47.788085938    
 1007-37-319     2361.0000000        2396.1630859       -35.163085938    
 1006-1-364      2442.0000000        2458.4367676       -16.436767578    
 1006-7-66       2438.0000000        2458.3442383       -20.344238281    
 1006-11-258     2368.0000000        2450.8728027       -82.872802734    
 1006-17-44      2426.0000000        2449.3513184       -23.351318359    
 1065-42-356     2413.0000000        2391.9311523        21.068847656    
 1065-48-334     2415.0000000        2401.7731934        13.226806641    
 1065-56-18      2414.0000000        2392.7229004        21.277099609    
 1065-66-24      2413.0000000        2358.9699707        54.030029297    
 991-22-34       2435.0000000        2441.1503906       -6.1503906250    
 991-26-279      2422.0000000        2429.0859375       -7.0859375000    
 991-31-335      2404.0000000        2428.6391602       -24.639160156    
 991-37-319      2396.0000000        2410.2004395       -14.200439453    
 991-42-356      2390.0000000        2404.7937012       -14.793701172    
 991-48-334      2394.0000000        2412.1782227       -18.178222656    
 991-66-27       2392.0000000        2371.7338867        20.266113281    
 976-1-365       2456.0000000        2464.1813965       -8.1813964844    
 963-1-365       2458.0000000        2467.2612305       -9.2612304688    
 964-1-365       2458.0000000        2467.1584473       -9.1584472656    
 960-1-365       2471.0000000        2468.3073730        2.6926269531    
 953-1-364       2473.0000000        2472.1953125       0.80468750000    
 950-17-4        2472.0000000        2464.3503418        7.6496582031    
 936-1-365       2461.0000000        2479.2980957       -18.298095703    
 932-1-365       2504.0000000        2482.0715332        21.928466797    
 944-42-356      2356.0000000        2415.9814453       -59.981445312    
 944-48-341      2376.0000000        2423.7167969       -47.716796875    
 926-1-365       2487.0000000        2483.8959961        3.1040039062    
 929-1-364       2484.0000000        2483.4572754       0.54272460938    
 929-6-340       2482.0000000        2481.0288086       0.97119140625    
 929-11-333      2478.0000000        2475.2529297        2.7470703125    
 929-16-301      2474.0000000        2472.9577637        1.0422363281    
 974-42-362      2301.0000000        2408.2275391       -107.22753906    
 974-48-336      2335.0000000        2416.9519043       -81.951904297    
 974-56-18       2322.0000000        2401.6130371       -79.613037109    
 957-1-365       2481.0000000        2474.2878418        6.7121582031    
 942-1-365       2544.0000000        2480.9211426        63.078857422    
 937-1-364       2473.0000000        2482.2614746       -9.2614746094    
 943-22-32       2442.0000000        2466.0583496       -24.058349609    
 943-26-279      2421.0000000        2453.7272949       -32.727294922    
 943-31-335      2403.0000000        2441.5925293       -38.592529297    
 943-36-335      2365.0000000        2421.3481445       -56.348144531    
 943-42-351      2351.0000000        2418.8540039       -67.854003906    
 943-48-336      2355.0000000        2426.5456543       -71.545654297    
 862-22-33       2507.0000000        2495.4787598        11.521240234    
 862-27-59       2490.0000000        2477.5166016        12.483398438    
 862-31-335      2453.0000000        2465.0729980       -12.072998047    
 862-36-336      2434.0000000        2448.3349609       -14.334960938    
 862-42-351      2426.0000000        2443.4938965       -17.493896484    
 862-48-337      2442.0000000        2443.8969727       -1.8969726562    
 901-1-364       2513.0000000        2495.0439453        17.956054688    
 907-37-342      2408.0000000        2426.1821289       -18.182128906    
 903-1-365       2503.0000000        2493.4348145        9.5651855469    
 895-42-356      2392.0000000        2427.8732910       -35.873291016    
 895-48-337      2386.0000000        2432.7170410       -46.717041016    
 898-1-32        2492.0000000        2491.7658691       0.23413085938    
 898-17-4        2491.0000000        2484.7412109        6.2587890625    
 889-22-32       2489.0000000        2479.0388184        9.9611816406    
 889-26-279      2467.0000000        2466.6723633       0.32763671875    
 889-31-335      2455.0000000        2452.8085938        2.1914062500    
 889-36-336      2425.0000000        2432.1638184       -7.1638183594    
 889-42-356      2380.0000000        2427.5949707       -47.594970703    
 889-48-337      2404.0000000        2431.9326172       -27.932617188    
 889-61-54       2384.0000000        2392.0302734       -8.0302734375    
 883-42-356      2375.0000000        2431.0859375       -56.085937500    
 621-37-343      2434.0000000        2440.6875000       -6.6875000000    
 934-33-21       2430.0000000        2442.1125488       -12.112548828    
 863-1-365       2520.0000000        2510.4826660        9.5173339844    
 914-48-336      2386.0000000        2427.2775879       -41.277587891    
 914-61-55       2363.0000000        2388.1235352       -25.123535156    
 902-17-47       2483.0000000        2481.2810059        1.7189941406    
 902-22-32       2476.0000000        2473.1374512        2.8625488281    
 902-26-278      2456.0000000        2460.2231445       -4.2231445312    
 902-36-336      2408.0000000        2427.1953125       -19.195312500    
 902-42-356      2375.0000000        2422.2404785       -47.240478516    
 902-48-337      2392.0000000        2428.0209961       -36.020996094    
 902-61-54       2366.0000000        2388.2119141       -22.211914062    
 916-1-365       2494.0000000        2486.1186523        7.8813476562    
 916-7-298       2486.0000000        2484.2587891        1.7412109375    
 916-11-258      2482.0000000        2479.0222168        2.9777832031    
 916-17-32       2483.0000000        2476.8342285        6.1657714844    
 916-22-34       2477.0000000        2469.6369629        7.3630371094    
 916-26-278      2448.0000000        2456.9428711       -8.9428710938    
 916-36-336      2401.0000000        2426.7360840       -25.736083984    
 916-42-362      2381.0000000        2421.3061523       -40.306152344    
 916-48-335      2388.0000000        2427.3891602       -39.389160156    
 916-61-55       2363.0000000        2389.7995605       -26.799560547    
 917-42-362      2386.0000000        2421.3574219       -35.357421875    
 917-48-335      2398.0000000        2427.4150391       -29.415039062    
 905-1-365       2494.0000000        2488.9421387        5.0578613281    
 910-42-362      2406.0000000        2424.3432617       -18.343261719    
 897-1-365       2511.0000000        2491.3278809        19.672119141    
 864-1-364       2511.0000000        2505.4375000        5.5625000000    
 865-42-356      2388.0000000        2436.7919922       -48.791992188    
 865-48-335      2411.0000000        2439.6677246       -28.667724609    
 854-1-365       2516.0000000        2509.0146484        6.9853515625    
 856-1-365       2515.0000000        2508.3825684        6.6174316406    
 851-22-34       2501.0000000        2495.5178223        5.4821777344    
 851-26-278      2480.0000000        2485.4326172       -5.4326171875    
 851-37-342      2445.0000000        2450.4497070       -5.4497070312    
 851-48-337      2426.0000000        2448.5864258       -22.586425781    
 851-61-54       2417.0000000        2414.3261719        2.6738281250    
 843-1-365       2514.0000000        2515.0178223       -1.0178222656    
 841-1-365       2523.0000000        2517.9140625        5.0859375000    
 836-17-4        2508.0000000        2513.4667969       -5.4667968750    
 823-1-365       2528.0000000        2527.1479492       0.85205078125    
 859-48-337      2415.0000000        2442.1486816       -27.148681641    
 842-37-342      2445.0000000        2453.9099121       -8.9099121094    
 842-42-356      2428.0000000        2450.8601074       -22.860107422    
 842-48-337      2429.0000000        2452.2548828       -23.254882812    
 842-61-54       2421.0000000        2416.6208496        4.3791503906    
 831-42-351      2438.0000000        2460.1662598       -22.166259766    
 831-48-337      2434.0000000        2460.7148438       -26.714843750    
 828-42-351      2440.0000000        2461.4060059       -21.406005859    
 828-48-337      2437.0000000        2461.8986816       -24.898681641    
 819-1-365       2533.0000000        2532.0241699       0.97583007812    
 1254-71-42      2339.0000000        2344.0368652       -5.0368652344    
 1228-37-95      2395.0000000        2421.5971680       -26.597167969    
 1228-42-356     2381.0000000        2412.5852051       -31.585205078    
 1228-56-20      2381.0000000        2388.4689941       -7.4689941406    
 1228-66-25      2353.0000000        2362.6984863       -9.6984863281    
 1228-71-40      2348.0000000        2355.1162109       -7.1162109375    
 1199-48-344     2388.0000000        2413.1708984       -25.170898438    
 1199-56-20      2389.0000000        2400.5234375       -11.523437500    
 1199-61-60      2375.0000000        2385.3847656       -10.384765625    
 1199-66-25      2369.0000000        2374.9909668       -5.9909667969    
 1199-71-40      2361.0000000        2366.2368164       -5.2368164062    
 1243-42-362     2314.0000000        2372.9040527       -58.904052734    
 1243-56-18      2313.0000000        2339.6882324       -26.688232422    
 1243-61-60      2294.0000000        2320.5529785       -26.552978516    
 1243-66-27      2283.0000000        2304.1799316       -21.179931641    
 1243-71-56      2280.0000000        2302.7214355       -22.721435547    
 1218-71-365     2422.0000000        2280.6003418        141.39965820    
 1204-42-356     2298.0000000        2352.9414062       -54.941406250    
 1204-56-17      2295.0000000        2344.2463379       -49.246337891    
 1204-66-26      2264.0000000        2299.8200684       -35.820068359    
 1204-71-365     2283.0000000        2286.9318848       -3.9318847656    
 1131-71-365     2433.0000000        2325.0781250        107.92187500    
 1112-48-320     2331.0000000        2396.4335938       -65.433593750    
 1112-56-25      2321.0000000        2382.5688477       -61.568847656    
 1112-60-362     2302.0000000        2366.3090820       -64.309082031    
 1112-65-348     2295.0000000        2350.4570312       -55.457031250    
 1112-71-60      2306.0000000        2339.8669434       -33.866943359    
 1112-71-365     2310.0000000        2338.6494141       -28.649414062    
 1118-71-365     2460.0000000        2341.5759277        118.42407227    
 1111-71-362     2461.0000000        2352.4777832        108.52221680    
 1169-71-362     2447.0000000        2328.3757324        118.62426758    
 1100-48-348     2500.0000000        2445.8813477        54.118652344    
 1100-56-25      2499.0000000        2433.8076172        65.192382812    
 1100-61-56      2487.0000000        2417.8928223        69.107177734    
 1100-66-42      2474.0000000        2399.4328613        74.567138672    
 1100-71-365     2471.0000000        2391.3066406        79.693359375    
 1051-42-355     2511.0000000        2471.4509277        39.549072266    
 1051-48-365     2505.0000000        2461.3930664        43.606933594    
 1051-56-25      2501.0000000        2450.1726074        50.827392578    
 1051-61-42      2495.0000000        2433.1398926        61.860107422    
 1051-66-53      2487.0000000        2412.0600586        74.939941406    
 1051-71-365     2480.0000000        2406.3288574        73.671142578    
 1036-12-95      2539.0000000        2526.0427246        12.957275391    
 1036-26-349     2538.0000000        2510.7622070        27.237792969    
 1036-48-348     2513.0000000        2469.9340820        43.065917969    
 1036-56-25      2511.0000000        2458.9257812        52.074218750    
 1036-61-42      2505.0000000        2444.2819824        60.718017578    
 1036-66-53      2496.0000000        2425.8813477        70.118652344    
 1036-71-365     2487.0000000        2414.8586426        72.141357422    
 1025-56-27      2508.0000000        2450.1560059        57.843994141    
 1025-66-59      2497.0000000        2422.1149902        74.885009766    
 1054-66-59      2488.0000000        2402.8007812        85.199218750    
 1055-65-348     2483.0000000        2397.8098145        85.190185547    
 1001-56-18      2499.0000000        2439.0437012        59.956298828    
 1001-65-348     2495.0000000        2415.9182129        79.081787109    
 1027-56-18      2499.0000000        2437.8859863        61.114013672    
 1086-71-55      2451.0000000        2358.4714355        92.528564453    
 1099-26-349     2377.0000000        2423.0827637       -46.082763672    
 1099-43-4       2312.0000000        2388.3635254       -76.363525391    
 1099-48-362     2335.0000000        2394.6774902       -59.677490234    
 1099-56-9       2312.0000000        2379.6506348       -67.650634766    
 1042-48-355     2340.0000000        2409.4030762       -69.403076172    
 1042-56-25      2320.0000000        2394.9123535       -74.912353516    
 1042-60-362     2294.0000000        2379.0898438       -85.089843750    
 1042-65-348     2287.0000000        2364.3398438       -77.339843750    
 1042-71-365     2304.0000000        2355.0825195       -51.082519531    
 952-56-33       2509.0000000        2452.3498535        56.650146484    
 952-65-348      2501.0000000        2430.6892090        70.310791016    
 949-56-27       2530.0000000        2487.5632324        42.436767578    
 993-56-27       2504.0000000        2448.8593750        55.140625000    
 956-56-29       2515.0000000        2462.9436035        52.056396484    
 886-71-355      2505.0000000        2481.1528320        23.847167969    
 886-71-362      2497.0000000        2481.1140137        15.885986328    
 913-42-355      2532.0000000        2528.9636230        3.0363769531    
 913-48-334      2529.0000000        2520.0561523        8.9438476562    
 913-56-18       2525.0000000        2509.0327148        15.967285156    
 913-61-53       2521.0000000        2497.8234863        23.176513672    
 913-66-32       2513.0000000        2483.7890625        29.210937500    
 874-71-61       2503.0000000        2472.1293945        30.870605469    
 933-48-338      2507.0000000        2464.3610840        42.638916016    
 933-56-18       2504.0000000        2451.7673340        52.232666016    
 933-61-53       2501.0000000        2442.1901855        58.809814453    
 933-66-32       2498.0000000        2431.1682129        66.831787109    
 887-26-285      2524.0000000        2518.3229980        5.6770019531    
 887-31-335      2519.0000000        2506.4277344        12.572265625    
 887-37-1        2505.0000000        2495.2053223        9.7946777344    
 887-42-357      2478.0000000        2483.2021484       -5.2021484375    
 877-42-352      2515.0000000        2486.9697266        28.030273438    
 877-48-338      2518.0000000        2477.1767578        40.823242188    
 877-61-53       2510.0000000        2454.8171387        55.182861328    
 877-66-32       2509.0000000        2445.0974121        63.902587891    
 919-42-357      2478.0000000        2448.4252930        29.574707031    
 920-42-357      2473.0000000        2442.9672852        30.032714844    
 888-42-357      2467.0000000        2454.1464844        12.853515625    
 892-17-48       2512.0000000        2507.5209961        4.4790039062    
 892-22-37       2508.0000000        2499.2150879        8.7849121094    
 892-26-285      2497.0000000        2482.6098633        14.390136719    
 892-31-335      2484.0000000        2469.9445801        14.055419922    
 892-36-337      2472.0000000        2455.0878906        16.912109375    
 878-36-335      2464.0000000        2445.5678711        18.432128906    
 878-42-359      2467.0000000        2440.8671875        26.132812500    
 878-71-365      2502.0000000        2391.0498047        110.95019531    
 853-22-37       2515.0000000        2501.9987793        13.001220703    
 853-26-336      2491.0000000        2473.5686035        17.431396484    
 853-48-362      2470.0000000        2437.3540039        32.645996094    
 853-56-9        2454.0000000        2424.6931152        29.306884766    
 853-61-47       2458.0000000        2405.8269043        52.173095703    
 853-65-357      2495.0000000        2392.8715820        102.12841797    
 853-71-362      2511.0000000        2392.8312988        118.16870117    
 844-43-4        2467.0000000        2444.5979004        22.402099609    
 844-48-362      2462.0000000        2436.7595215        25.240478516    
 844-56-9        2474.0000000        2426.2390137        47.760986328    
 844-61-47       2465.0000000        2405.6772461        59.322753906    
 844-65-357      2498.0000000        2391.6628418        106.33715820    
 844-71-362      2515.0000000        2393.3496094        121.65039062    
 834-16-364      2533.0000000        2526.4658203        6.5341796875    
 834-26-280      2484.0000000        2481.0566406        2.9433593750    
 834-43-4        2465.0000000        2448.8032227        16.196777344    
 834-56-20       2471.0000000        2430.3176270        40.682373047    
 834-60-306      2458.0000000        2410.5869141        47.413085938    
 834-65-357      2497.0000000        2398.5217285        98.478271484    
 834-71-362      2514.0000000        2399.8264160        114.17358398    
 835-65-357      2500.0000000        2396.9777832        103.02221680    
 835-71-362      2518.0000000        2398.2636719        119.73632812    
 815-1-365       2541.0000000        2541.4309082      -0.43090820312    
 850-17-80       2544.0000000        2544.5153809      -0.51538085938    
 850-22-37       2543.0000000        2539.6394043        3.3605957031    
 850-26-285      2538.0000000        2530.6586914        7.3413085938    
 850-31-335      2532.0000000        2519.0095215        12.990478516    
 850-38-60       2520.0000000        2505.6984863        14.301513672    
 850-42-352      2509.0000000        2496.9672852        12.032714844    
 850-48-338      2512.0000000        2486.3266602        25.673339844    
 850-60-320      2501.0000000        2464.2614746        36.738525391    
 850-65-298      2503.0000000        2455.2915039        47.708496094    
 850-71-365      2504.0000000        2445.6633301        58.336669922    
 1259-66-59      2533.0000000        2542.6281738       -9.6281738281    
 1236-66-59      2562.0000000        2564.2033691       -2.2033691406    
 1260-66-59      2532.0000000        2537.6547852       -5.6547851562    
 1244-66-59      2536.0000000        2543.3276367       -7.3276367188    
 1252-35-23      2516.0000000        2516.1506348      -0.15063476562    
 1267-71-365     2476.0000000        2451.3417969        24.658203125    
 1253-37-90      2465.0000000        2476.3049316       -11.304931641    
 1253-42-355     2463.0000000        2467.3823242       -4.3823242188    
 1253-48-349     2460.0000000        2459.9719238       2.80761718750E-02
 1253-56-11      2455.0000000        2445.5715332        9.4284667969    
 1253-61-56      2448.0000000        2434.5009766        13.499023438    
 1253-66-59      2441.0000000        2424.0732422        16.926757812    
 1253-71-365     2429.0000000        2413.0305176        15.969482422    
 1245-37-90      2438.0000000        2446.9245605       -8.9245605469    
 1245-42-355     2425.0000000        2437.2739258       -12.273925781    
 1245-48-349     2420.0000000        2426.5029297       -6.5029296875    
 1245-55-357     2417.0000000        2413.3823242        3.6176757812    
 1245-61-12      2408.0000000        2399.4370117        8.5629882812    
 1245-66-49      2401.0000000        2390.9174805        10.082519531    
 1245-71-365     2392.0000000        2381.9106445        10.089355469    
 1250-17-86      2461.0000000        2470.7978516       -9.7978515625    
 1250-32-69      2422.0000000        2438.2792969       -16.279296875    
 1250-37-95      2405.0000000        2422.2873535       -17.287353516    
 1250-56-19      2380.0000000        2385.8906250       -5.8906250000    
 1250-61-60      2364.0000000        2371.5070801       -7.5070800781    
 1251-12-296     2472.0000000        2478.3095703       -6.3095703125    
 1251-17-86      2459.0000000        2469.1931152       -10.193115234    
 1251-32-69      2418.0000000        2435.8791504       -17.879150391    
 1251-37-95      2401.0000000        2418.6423340       -17.642333984    
 1251-42-356     2381.0000000        2409.3601074       -28.360107422    
 1251-48-334     2380.0000000        2398.2153320       -18.215332031    
 1251-56-19      2376.0000000        2383.0126953       -7.0126953125    
 1251-60-321     2362.0000000        2369.3549805       -7.3549804688    
 1251-65-298     2356.0000000        2360.4396973       -4.4396972656    
 1251-71-365     2351.0000000        2352.9792480       -1.9792480469    
 1226-48-344     2395.0000000        2417.5771484       -22.577148438    
 1226-56-19      2392.0000000        2402.2089844       -10.208984375    
 1226-61-60      2374.0000000        2386.6210938       -12.621093750    
 1226-66-25      2371.0000000        2378.1748047       -7.1748046875    
 1226-71-42      2363.0000000        2369.9660645       -6.9660644531    
 1195-12-297     2515.0000000        2502.4704590        12.529541016    
 1195-17-60      2511.0000000        2497.2246094        13.775390625    
 1195-32-69      2493.0000000        2471.0217285        21.978271484    
 1195-37-95      2484.0000000        2457.9958496        26.004150391    
 1195-48-344     2469.0000000        2438.7480469        30.251953125    
 1195-56-19      2423.0000000        2425.3447266       -2.3447265625    
 1195-66-25      2438.0000000        2400.2038574        37.796142578    
 1128-70-357     2457.0000000        2406.0651855        50.934814453    
 1128-71-365     2458.0000000        2403.3142090        54.685791016    
 1110-17-78      2537.0000000        2524.8750000        12.125000000    
 1110-32-70      2525.0000000        2506.1826172        18.817382812    
 1110-37-1       2507.0000000        2497.7031250        9.2968750000    
 1137-16-357     2534.0000000        2534.9777832      -0.97778320312    
 1173-66-5       2554.0000000        2571.6579590       -17.657958984    
 1173-71-365     2541.0000000        2565.8090820       -24.809082031    
 1044-16-362     2571.0000000        2585.8217773       -14.821777344    
 1044-32-69      2561.0000000        2578.5185547       -17.518554688    
 1044-37-95      2559.0000000        2575.2319336       -16.231933594    
 1044-42-356     2552.0000000        2570.2145996       -18.214599609    
 1044-48-344     2546.0000000        2564.4428711       -18.442871094    
 1044-56-20      2550.0000000        2556.1396484       -6.1396484375    
 1044-61-60      2536.0000000        2541.9436035       -5.9436035156    
 1044-66-25      2521.0000000        2522.2224121       -1.2224121094    
 1050-71-40      2513.0000000        2507.1054688        5.8945312500    
 1045-31-349     2555.0000000        2552.9306641        2.0693359375    
 1045-37-26      2550.0000000        2547.4189453        2.5810546875    
 1045-42-354     2545.0000000        2539.5354004        5.4645996094    
 1045-48-344     2543.0000000        2532.6838379        10.316162109    
 1045-56-17      2550.0000000        2522.5046387        27.495361328    
 1045-60-320     2531.0000000        2509.7973633        21.202636719    
 1045-65-298     2514.0000000        2490.9113770        23.088623047    
 1045-71-365     2501.0000000        2473.4174805        27.582519531    
 1046-31-349     2549.0000000        2552.9306641       -3.9306640625    
 1046-42-354     2535.0000000        2539.5354004       -4.5354003906    
 1046-48-344     2536.0000000        2532.6838379        3.3161621094    
 1046-56-17      2529.0000000        2522.5046387        6.4953613281    
 1046-60-320     2529.0000000        2509.7973633        19.202636719    
 1046-65-298     2512.0000000        2490.9113770        21.088623047    
 1046-71-365     2500.0000000        2473.4174805        26.582519531    
 1047-31-349     2492.0000000        2552.9306641       -60.930664062    
 1047-42-354     2469.0000000        2539.5354004       -70.535400391    
 1047-48-344     2465.0000000        2532.6838379       -67.683837891    
 1047-56-17      2456.0000000        2522.5046387       -66.504638672    
 1047-60-320     2443.0000000        2509.7973633       -66.797363281    
 1047-65-298     2463.0000000        2490.9113770       -27.911376953    
 1047-71-365     2462.0000000        2473.4174805       -11.417480469    
 1059-32-70      2541.0000000        2537.6191406        3.3808593750    
 1059-56-19      2525.0000000        2504.1723633        20.827636719    
 1059-61-54      2518.0000000        2491.6796875        26.320312500    
 1059-66-32      2504.0000000        2474.5336914        29.466308594    
 1070-36-283     2528.0000000        2500.8710938        27.128906250    
 1017-17-78      2551.0000000        2565.6823730       -14.682373047    
 1017-31-349     2541.0000000        2554.6442871       -13.644287109    
 1017-37-26      2537.0000000        2548.8303223       -11.830322266    
 1017-42-355     2531.0000000        2541.0366211       -10.036621094    
 1004-71-365     2502.0000000        2464.6179199        37.382080078    
 988-2-60        2547.0000000        2557.3850098       -10.385009766    
 979-42-355      2538.0000000        2525.2766113        12.723388672    
 979-48-334      2535.0000000        2517.0310059        17.968994141    
 979-56-18       2530.0000000        2506.3525391        23.647460938    
 979-61-53       2526.0000000        2493.9035645        32.096435547    
 961-7-85        2553.0000000        2559.0832520       -6.0832519531    
 961-12-60       2552.0000000        2558.1057129       -6.1057128906    
 961-16-362      2552.0000000        2556.2653809       -4.2653808594    
 955-61-53       2538.0000000        2500.8510742        37.148925781    
 955-66-31       2528.0000000        2484.7385254        43.261474609    
 925-71-365      2505.0000000        2477.1528320        27.847167969    
 940-71-365      2503.0000000        2476.9597168        26.040283203    
 945-71-365      2504.0000000        2477.2666016        26.733398438    
 959-66-49       2516.0000000        2503.2062988        12.793701172    
 959-71-365      2504.0000000        2489.2153320        14.784667969    
 922-61-42       2543.0000000        2530.7072754        12.292724609    
 922-66-54       2523.0000000        2503.8544922        19.145507812    
 922-71-365      2511.0000000        2489.1826172        21.817382812    
 978-66-59       2532.0000000        2538.0012207       -6.0012207031    
 978-71-365      2523.0000000        2524.0085449       -1.0085449219    
 977-56-17       2602.0000000        2621.4304199       -19.430419922    
 977-61-53       2594.0000000        2613.6154785       -19.615478516    
 977-66-32       2580.0000000        2598.9355469       -18.935546875    
 973-32-70       2598.0000000        2634.8330078       -36.833007812    
 973-38-60       2590.0000000        2635.0078125       -45.007812500    
 973-56-17       2607.0000000        2624.6750488       -17.675048828    
 973-61-53       2599.0000000        2617.3220215       -18.322021484    
 954-42-354      2599.0000000        2632.5944824       -33.594482422    
 954-48-335      2608.0000000        2627.1784668       -19.178466797    
 870-12-60       2625.0000000        2658.4958496       -33.495849609    
 870-17-78       2621.0000000        2657.6931152       -36.693115234    
 870-22-89       2618.0000000        2657.0563965       -39.056396484    
 870-32-70       2613.0000000        2658.0893555       -45.089355469    
 870-37-1        2612.0000000        2657.3049316       -45.304931641    
 870-42-354      2609.0000000        2654.7180176       -45.718017578    
 869-7-171       2627.0000000        2650.9768066       -23.976806641    
 869-42-354      2609.0000000        2648.2119141       -39.211914062    
 869-56-18       2612.0000000        2640.8642578       -28.864257812    
 869-60-320      2607.0000000        2635.6875000       -28.687500000    
 869-65-299      2594.0000000        2624.7014160       -30.701416016    
 869-71-365      2580.0000000        2613.4858398       -33.485839844    
 915-66-53       2565.0000000        2562.3691406        2.6308593750    
 915-71-365      2556.0000000        2549.2949219        6.7050781250    
 912-66-41       2539.0000000        2530.9206543        8.0793457031    
 912-71-365      2518.0000000        2519.2692871       -1.2692871094    
 875-2-86        2589.0000000        2611.2192383       -22.219238281    
 879-61-53       2579.0000000        2563.7829590        15.217041016    
 879-66-46       2541.0000000        2533.0776367        7.9223632812    
 879-71-365      2540.0000000        2521.1997070        18.800292969    
 881-2-87        2569.0000000        2600.1916504       -31.191650391    
 891-48-334      2541.0000000        2550.9597168       -9.9597167969    
 891-56-18       2538.0000000        2540.4284668       -2.4284667969    
 891-61-62       2530.0000000        2527.0673828        2.9326171875    
 891-66-32       2519.0000000        2510.0124512        8.9875488281    
 891-71-64       2506.0000000        2493.1884766        12.811523438    
 876-42-355      2552.0000000        2569.5239258       -17.523925781    
 876-48-334      2539.0000000        2561.3244629       -22.324462891    
 876-56-19       2544.0000000        2551.4641113       -7.4641113281    
 876-61-62       2538.0000000        2538.0449219      -4.49218750000E-02
 876-66-32       2526.0000000        2519.4284668        6.5715332031    
 866-66-32       2529.0000000        2521.8710938        7.1289062500    
 866-71-64       2515.0000000        2506.6750488        8.3249511719    
 873-33-328      2565.0000000        2579.1364746       -14.136474609    
 918-42-355      2544.0000000        2553.9580078       -9.9580078125    
 906-37-28       2539.0000000        2562.3715820       -23.371582031    
 923-42-355      2541.0000000        2544.0419922       -3.0419921875    
 923-48-334      2538.0000000        2535.5769043        2.4230957031    
 923-56-18       2533.0000000        2525.1035156        7.8964843750    
 849-42-356      2552.0000000        2558.8049316       -6.8049316406    
 849-56-18       2543.0000000        2538.8381348        4.1618652344    
 3417-32-69      2618.0000000        2656.9694824       -38.969482422    
 3417-35-23      2607.0000000        2656.7304688       -49.730468750    
 3417-42-354     2615.0000000        2653.7897949       -38.789794922    
 3417-48-335     2618.0000000        2650.2050781       -32.205078125    
 3417-56-17      2606.0000000        2644.9321289       -38.932128906    
 3417-61-53      2601.0000000        2639.1689453       -38.168945312    
 1921-16-362     2735.0000000        2757.2309570       -22.230957031    
 1229-36-319     2700.0000000        2727.1567383       -27.156738281    
 1202-42-362     2739.0000000        2769.9150391       -30.915039062    
 1202-48-336     2748.0000000        2767.0629883       -19.062988281    
 1164-2-93       2771.0000000        2787.1809082       -16.180908203    
 1164-16-300     2748.0000000        2783.5817871       -35.581787109    
 1164-27-12      2758.0000000        2796.4685059       -38.468505859    
 1164-48-336     2788.0000000        2804.7521973       -16.752197266    
 1164-56-17      2792.0000000        2840.1254883       -48.125488281    
 1164-61-60      2780.0000000        2834.4079590       -54.407958984    
 1125-71-356     2768.0000000        2829.4948730       -61.494873047    
 1123-71-53      2768.0000000        2827.2370605       -59.237060547    
 1543-2-90       2922.0000000        2821.9819336        100.01806641    
 1543-56-19      2860.0000000        2887.1857910       -27.185791016    
 1543-66-26      2873.0000000        2862.4897461        10.510253906    
 1084-48-338     2852.0000000        2842.1818848        9.8181152344    
 1067-71-63      2781.0000000        2825.4763184       -44.476318359    
 1066-71-63      2777.0000000        2827.1223145       -50.122314453    
 1544-2-88       2878.0000000        2811.9362793        66.063720703    
 1544-12-324     2840.0000000        2809.7609863        30.239013672    
 1593-61-60      2797.0000000        2834.7922363       -37.792236328    
 1593-66-26      2774.0000000        2810.9350586       -36.935058594    
 1069-71-365     2691.0000000        2760.7495117       -69.749511719    
 1052-56-17      2728.0000000        2786.2817383       -58.281738281    
 1052-66-26      2705.0000000        2779.7592773       -74.759277344    
 989-66-20       2704.0000000        2760.1508789       -56.150878906    
 966-22-60       2729.0000000        2728.8691406       0.13085937500    
 987-12-324      2803.0000000        2811.9543457       -8.9543457031    
 987-22-33       2814.0000000        2816.4909668       -2.4909667969    
 987-27-12       2810.0000000        2821.8447266       -11.844726562    
 987-66-20       2825.0000000        2850.5200195       -25.520019531    
 858-71-63       2702.0000000        2776.0593262       -74.059326172    
 890-42-362      2717.0000000        2773.3881836       -56.388183594    
 890-48-338      2730.0000000        2773.6767578       -43.676757812    
 890-56-19       2730.0000000        2773.9338379       -43.933837891    
 890-61-60       2726.0000000        2777.3388672       -51.338867188    
 890-66-20       2715.0000000        2773.8542480       -58.854248047    
 908-71-365      2689.0000000        2751.2817383       -62.281738281    
 667-17-5        2504.0000000        2519.9230957       -15.923095703    
 667-22-1        2502.0000000        2515.6669922       -13.666992188    
 667-27-14       2494.0000000        2512.1135254       -18.113525391    
 667-31-350      2499.0000000        2510.0495605       -11.049560547    
 667-37-340      2494.0000000        2505.8349609       -11.834960938    
 667-42-351      2499.0000000        2501.4729004       -2.4729003906    
 667-48-348      2498.0000000        2502.4003906       -4.4003906250    
 652-27-14       2504.0000000        2517.1198730       -13.119873047    
 652-56-17       2507.0000000        2507.2458496      -0.24584960938    
 652-66-20       2507.0000000        2507.5585938      -0.55859375000    
 614-27-14       2526.0000000        2550.5925293       -24.592529297    
 613-56-17       2525.0000000        2541.3625488       -16.362548828    
 641-1-260       2528.0000000        2555.4243164       -27.424316406    
 641-26-1        2539.0000000        2550.6962891       -11.696289062    
 641-56-18       2538.0000000        2538.2609863      -0.26098632812    
 641-66-31       2538.0000000        2539.3503418       -1.3503417969    
 793-6-289       2382.0000000        2391.5690918       -9.5690917969    
 793-48-348      2377.0000000        2368.8115234        8.1884765625    
 793-61-25       2381.0000000        2367.8928223        13.107177734    
 793-65-357      2380.0000000        2365.3872070        14.612792969    
 793-71-365      2382.0000000        2365.4274902        16.572509766    
 762-56-18       2383.0000000        2370.9152832        12.084716797    
 762-61-61       2384.0000000        2370.3383789        13.661621094    
 762-66-34       2383.0000000        2369.0332031        13.966796875    
 758-48-348      2397.0000000        2394.9328613        2.0671386719    
 758-55-353      2400.0000000        2394.6308594        5.3691406250    
 758-61-25       2401.0000000        2395.4892578        5.5107421875    
 758-65-362      2400.0000000        2393.2910156        6.7089843750    
 758-71-365      2401.0000000        2392.7585449        8.2414550781    
 766-10-104      2408.0000000        2438.6694336       -30.669433594    
 773-36-156      2387.0000000        2415.5427246       -28.542724609    
 722-8-276       2447.0000000        2462.6872559       -15.687255859    
 722-12-360      2448.0000000        2461.1069336       -13.106933594    
 722-22-3        2447.0000000        2454.7026367       -7.7026367188    
 741-65-362      2421.0000000        2419.2976074        1.7023925781    
 741-71-365      2422.0000000        2418.5305176        3.4694824219    
 738-65-362      2422.0000000        2423.2697754       -1.2697753906    
 738-71-365      2422.0000000        2422.5612793      -0.56127929688    
 743-65-362      2421.0000000        2416.1860352        4.8139648438    
 743-71-365      2421.0000000        2415.3447266        5.6552734375    
 740-65-362      2421.0000000        2419.1049805        1.8950195312    
 740-71-365      2421.0000000        2418.2512207        2.7487792969    
 737-22-3        2416.0000000        2428.8959961       -12.895996094    
 737-48-348      2416.0000000        2417.8583984       -1.8583984375    
 737-61-25       2418.0000000        2420.1369629       -2.1369628906    
 737-65-362      2418.0000000        2417.9868164       1.31835937500E-02
 737-71-365      2418.0000000        2416.9448242        1.0551757812    
 723-12-180      2416.0000000        2398.0561523        17.943847656    
 723-17-9        2414.0000000        2396.3041992        17.695800781    
 723-22-1        2414.0000000        2393.2954102        20.704589844    
 723-32-85       2411.0000000        2388.4362793        22.563720703    
 748-61-61       2238.0000000        2251.9113770       -13.911376953    
 748-66-33       2227.0000000        2248.7253418       -21.725341797    
 714-56-19       2237.0000000        2290.0859375       -53.085937500    
 714-61-61       2235.0000000        2286.9543457       -51.954345703    
 715-56-17       2450.0000000        2462.8244629       -12.824462891    
 715-61-62       2457.0000000        2464.8344727       -7.8344726562    
 715-66-35       2456.0000000        2463.0075684       -7.0075683594    
 713-56-17       2455.0000000        2465.0302734       -10.030273438    
 713-66-35       2454.0000000        2465.2302246       -11.230224609    
 702-65-362      2463.0000000        2457.4667969        5.5332031250    
 702-71-365      2463.0000000        2456.3054199        6.6945800781    
 700-36-164      2460.0000000        2471.5893555       -11.589355469    
 700-55-353      2466.0000000        2467.0043945       -1.0043945312    
 700-61-25       2467.0000000        2470.0432129       -3.0432128906    
 700-65-362      2466.0000000        2467.2268066       -1.2268066406    
 700-71-365      2467.0000000        2466.2536621       0.74633789062    
 671-27-14       2489.0000000        2497.9135742       -8.9135742188    
 671-55-353      2494.0000000        2489.6369629        4.3630371094    
 671-61-25       2495.0000000        2491.8127441        3.1872558594    
 656-12-178      2494.0000000        2517.6779785       -23.677978516    
 656-56-17       2499.0000000        2502.0791016       -3.0791015625    
 656-66-20       2499.0000000        2500.9333496       -1.9333496094    
 656-71-365      2499.0000000        2500.0297852       -1.0297851562    
 655-26-362      2408.0000000        2409.4279785       -1.4279785156    
 655-32-85       2406.0000000        2407.6384277       -1.6384277344    
 655-35-53       2401.0000000        2406.4794922       -5.4794921875    
 655-56-18       2407.0000000        2398.2145996        8.7854003906    
 689-66-33       2257.0000000        2328.0461426       -71.046142578    
 688-71-365      2245.0000000        2330.6018066       -85.601806641    
 682-56-18       2351.0000000        2355.5756836       -4.5756835938    
 636-56-18       2491.0000000        2477.0571289        13.942871094    
 636-61-62       2491.0000000        2477.2133789        13.786621094    
 636-66-20       2492.0000000        2476.7617188        15.238281250    
 648-71-365      2482.0000000        2474.4069824        7.5930175781    
 601-48-348      2513.0000000        2498.2468262        14.753173828    
 601-55-353      2504.0000000        2498.1752930        5.8247070312    
 601-61-34       2505.0000000        2498.2382812        6.7617187500    
 601-65-362      2505.0000000        2498.0737305        6.9262695312    
 601-71-365      2505.0000000        2496.5737305        8.4262695312    
 632-56-17       2501.0000000        2526.1992188       -25.199218750    
 632-66-20       2500.0000000        2526.6845703       -26.684570312    
 602-22-1        2498.0000000        2530.0263672       -32.026367188    
 579-56-18       2514.0000000        2532.5866699       -18.586669922    
 598-42-351      2491.0000000        2473.9533691        17.046630859    
 598-48-348      2490.0000000        2471.8950195        18.104980469    
 598-56-18       2494.0000000        2470.9880371        23.011962891    
 598-60-323      2494.0000000        2470.5637207        23.436279297    
 598-65-300      2493.0000000        2469.9121094        23.087890625    
 598-71-365      2495.0000000        2468.4155273        26.584472656    
 739-37-15       2205.0000000        2232.3791504       -27.379150391    
 739-48-341      2200.0000000        2220.4802246       -20.480224609    
 739-55-353      2197.0000000        2212.3273926       -15.327392578    
 739-61-34       2193.0000000        2209.3127441       -16.312744141    
 739-65-362      2190.0000000        2204.5341797       -14.534179688    
 739-71-365      2186.0000000        2198.6813965       -12.681396484    
 720-12-152      2215.0000000        2256.5168457       -41.516845703    
 720-17-9        2226.0000000        2256.2602539       -30.260253906    
 720-21-364      2222.0000000        2255.4606934       -33.460693359    
 720-66-34       2202.0000000        2222.4807129       -20.480712891    
 747-48-341      2159.0000000        2195.0192871       -36.019287109    
 747-55-346      2172.0000000        2187.9792480       -15.979248047    
 747-61-34       2161.0000000        2182.4758301       -21.475830078    
 747-65-362      2158.0000000        2177.0478516       -19.047851562    
 747-71-365      2157.0000000        2170.5649414       -13.564941406    
 717-27-13       2532.0000000        2532.3879395      -0.38793945312    
 644-42-343      2450.0000000        2485.9506836       -35.950683594    
 625-42-343      2439.0000000        2476.9294434       -37.929443359    
 620-42-343      2444.0000000        2477.2834473       -33.283447266    
 634-35-29       2574.0000000        2619.1105957       -45.110595703    
 634-42-322      2559.0000000        2603.4648438       -44.464843750    
 554-42-350      2595.0000000        2612.6091309       -17.609130859    
 561-42-349      2661.0000000        2652.7084961        8.2915039062    
 535-42-350      2638.0000000        2640.3771973       -2.3771972656    
 577-22-34       2586.0000000        2589.2617188       -3.2617187500    
 577-27-59       2549.0000000        2537.2490234        11.750976562    
 577-31-339      2500.0000000        2497.6071777        2.3928222656    
 577-37-1        2481.0000000        2491.7951660       -10.795166016    
 577-42-343      2452.0000000        2486.2673340       -34.267333984    
 577-48-343      2460.0000000        2482.8122559       -22.812255859    
 577-56-16       2425.0000000        2439.5380859       -14.538085938    
 577-60-322      2411.0000000        2423.3642578       -12.364257812    
 577-65-302      2452.0000000        2453.0732422       -1.0732421875    
 577-71-365      2473.0000000        2484.4077148       -11.407714844    
 581-1-365       2613.0000000        2619.5961914       -6.5961914062    
 582-42-343      2423.0000000        2456.6179199       -33.617919922    
 582-56-16       2421.0000000        2418.9123535        2.0876464844    
 586-27-56       2560.0000000        2528.8269043        31.173095703    
 586-37-316      2455.0000000        2456.7189941       -1.7189941406    
 586-42-343      2436.0000000        2448.4189453       -12.418945312    
 586-56-16       2414.0000000        2401.5192871        12.480712891    
 586-61-55       2392.0000000        2384.9104004        7.0895996094    
 586-66-46       2450.0000000        2456.0197754       -6.0197753906    
 553-22-39       2593.0000000        2584.4328613        8.5671386719    
 553-26-299      2554.0000000        2547.0207520        6.9792480469    
 553-31-348      2505.0000000        2503.8171387        1.1828613281    
 553-36-21       2455.0000000        2474.2529297       -19.252929688    
 584-22-44       2584.0000000        2575.9809570        8.0190429688    
 584-27-56       2547.0000000        2533.5397949        13.460205078    
 584-31-339      2495.0000000        2506.7104492       -11.710449219    
 584-37-1        2474.0000000        2469.2587891        4.7412109375    
 584-42-343      2433.0000000        2452.4213867       -19.421386719    
 584-56-16       2410.0000000        2413.7502441       -3.7502441406    
 584-61-55       2391.0000000        2397.3107910       -6.3107910156    
 584-66-46       2446.0000000        2465.0776367       -19.077636719    
 585-22-44       2583.0000000        2583.1679688      -0.16796875000    
 585-27-56       2547.0000000        2534.1259766        12.874023438    
 585-31-339      2498.0000000        2498.7895508      -0.78955078125    
 585-37-1        2467.0000000        2478.6320801       -11.632080078    
 585-42-343      2437.0000000        2468.9201660       -31.920166016    
 585-56-16       2417.0000000        2413.9206543        3.0793457031    
 585-61-55       2400.0000000        2398.0622559        1.9377441406    
 585-66-46       2434.0000000        2453.7666016       -19.766601562    
 557-38-1        2450.0000000        2445.6965332        4.3034667969    
 557-42-343      2435.0000000        2447.6076660       -12.607666016    
 557-66-46       2446.0000000        2454.5554199       -8.5554199219    
 548-1-365       2625.0000000        2628.0410156       -3.0410156250    
 575-17-55       2606.0000000        2589.5212402        16.478759766    
 575-22-44       2585.0000000        2573.0183105        11.981689453    
 575-26-299      2563.0000000        2545.8342285        17.165771484    
 563-17-55       2608.0000000        2594.3151855        13.684814453    
 563-22-44       2582.0000000        2577.4072266        4.5927734375    
 563-66-46       2450.0000000        2485.1889648       -35.188964844    
 556-26-299      2555.0000000        2550.7153320        4.2846679688    
 556-31-335      2494.0000000        2510.8962402       -16.896240234    
 556-36-317      2441.0000000        2455.5136719       -14.513671875    
 556-56-10       2417.0000000        2450.3845215       -33.384521484    
 556-61-56       2388.0000000        2432.3125000       -44.312500000    
 556-66-34       2437.0000000        2480.1594238       -43.159423828    
 558-26-299      2562.0000000        2553.8923340        8.1076660156    
 558-31-317      2494.0000000        2516.4313965       -22.431396484    
 558-38-319      2491.0000000        2478.6926270        12.307373047    
 572-1-365       2603.0000000        2621.5036621       -18.503662109    
 543-1-365       2605.0000000        2628.7368164       -23.736816406    
 529-48-336      2480.0000000        2500.8352051       -20.835205078    
 529-56-10       2437.0000000        2477.6520996       -40.652099609    
 529-61-56       2410.0000000        2459.7531738       -49.753173828    
 529-66-34       2445.0000000        2481.3005371       -36.300537109    
 798-1-365       2539.0000000        2543.1374512       -4.1374511719    
 794-1-77        2534.0000000        2542.5485840       -8.5485839844    
 772-3-59        2562.0000000        2551.1657715        10.834228516    
 792-1-365       2540.0000000        2540.8959961      -0.89599609375    
 790-1-274       2535.0000000        2536.1940918       -1.1940917969    
 790-6-286       2531.0000000        2534.7595215       -3.7595214844    
 790-11-258      2529.0000000        2531.4924316       -2.4924316406    
 790-17-4        2524.0000000        2528.0314941       -4.0314941406    
 790-22-34       2517.0000000        2516.5788574       0.42114257812    
 790-27-53       2506.0000000        2504.4370117        1.5629882812    
 790-31-335      2490.0000000        2492.6213379       -2.6213378906    
 790-37-32       2471.0000000        2477.8688965       -6.8688964844    
 790-42-351      2453.0000000        2471.6193848       -18.619384766    
 790-48-337      2445.0000000        2471.2241211       -26.224121094    
 790-61-54       2443.0000000        2441.1950684        1.8049316406    
 783-1-274       2535.0000000        2545.3620605       -10.362060547    
 783-6-288       2532.0000000        2543.4709473       -11.470947266    
 783-11-258      2528.0000000        2540.7250977       -12.725097656    
 783-17-4        2528.0000000        2537.4436035       -9.4436035156    
 783-17-47       2528.0000000        2537.3669434       -9.3669433594    
 783-22-34       2521.0000000        2525.6071777       -4.6071777344    
 783-26-280      2507.0000000        2513.3649902       -6.3649902344    
 783-31-335      2498.0000000        2500.2827148       -2.2827148438    
 783-42-351      2458.0000000        2479.9079590       -21.907958984    
 783-61-54       2445.0000000        2449.0798340       -4.0798339844    
 799-1-365       2542.0000000        2536.5151367        5.4848632812    
 774-65-357      2494.0000000        2433.2145996        60.785400391    
 774-71-362      2519.0000000        2441.2006836        77.799316406    
 751-1-365       2570.0000000        2565.6379395        4.3620605469    
 746-22-38       2536.0000000        2535.4902344       0.50976562500    
 746-26-280      2500.0000000        2514.2338867       -14.233886719    
 746-32-41       2498.0000000        2501.3913574       -3.3913574219    
 746-48-362      2477.0000000        2475.6259766        1.3740234375    
 746-56-9        2486.0000000        2466.0473633        19.952636719    
 746-61-47       2486.0000000        2447.7580566        38.241943359    
 746-65-357      2520.0000000        2446.4213867        73.578613281    
 746-71-362      2538.0000000        2457.5861816        80.413818359    
 745-1-55        2556.0000000        2566.9768066       -10.976806641    
 754-48-342      2454.0000000        2474.6647949       -20.664794922    
 754-56-18       2468.0000000        2464.3164062        3.6835937500    
 754-61-53       2463.0000000        2445.6325684        17.367431641    
 754-66-32       2491.0000000        2443.6975098        47.302490234    
 721-12-313      2560.0000000        2567.1325684       -7.1325683594    
 721-17-52       2559.0000000        2563.2431641       -4.2431640625    
 721-22-38       2545.0000000        2546.5534668       -1.5534667969    
 721-26-287      2529.0000000        2524.4426270        4.5573730469    
 721-31-335      2519.0000000        2514.3220215        4.6779785156    
 721-36-318      2501.0000000        2497.9763184        3.0236816406    
 721-42-350      2487.0000000        2492.9187012       -5.9187011719    
 721-48-343      2496.0000000        2489.5605469        6.4394531250    
 721-56-19       2501.0000000        2477.3696289        23.630371094    
 721-61-55       2517.0000000        2461.2060547        55.793945312    
 721-66-46       2551.0000000        2469.9001465        81.099853516    
 729-43-4        2481.0000000        2491.8315430       -10.831542969    
 729-48-362      2483.0000000        2486.4899902       -3.4899902344    
 729-56-9        2494.0000000        2476.0336914        17.966308594    
 729-66-1        2530.0000000        2466.1791992        63.820800781    
 729-71-362      2550.0000000        2480.6386719        69.361328125    
 706-17-52       2567.0000000        2570.7990723       -3.7990722656    
 706-22-37       2551.0000000        2551.4018555      -0.40185546875    
 706-27-62       2534.0000000        2531.4931641        2.5068359375    
 706-31-335      2512.0000000        2518.2526855       -6.2526855469    
 706-43-4        2494.0000000        2496.5200195       -2.5200195312    
 706-48-362      2496.0000000        2490.8188477        5.1811523438    
 706-56-9        2500.0000000        2481.3103027        18.689697266    
 706-61-47       2502.0000000        2468.0471191        33.952880859    
 706-65-357      2537.0000000        2480.3852539        56.614746094    
 706-71-362      2557.0000000        2496.6037598        60.396240234    
 694-17-52       2576.0000000        2577.3596191       -1.3596191406    
 694-22-38       2562.0000000        2557.9172363        4.0827636719    
 694-26-285      2534.0000000        2542.3583984       -8.3583984375    
 694-31-344      2513.0000000        2525.0832520       -12.083251953    
 694-36-354      2476.0000000        2508.3405762       -32.340576172    
 694-43-4        2493.0000000        2501.7087402       -8.7087402344    
 694-48-362      2498.0000000        2495.3544922        2.6455078125    
 694-56-9        2505.0000000        2485.7204590        19.279541016    
 694-61-47       2504.0000000        2474.4145508        29.585449219    
 694-65-357      2533.0000000        2482.6867676        50.313232422    
 694-71-362      2554.0000000        2498.6264648        55.373535156    
 716-1-365       2575.0000000        2582.2421875       -7.2421875000    
 719-12-121      2562.0000000        2569.5146484       -7.5146484375    
 708-8-302       2566.0000000        2576.5603027       -10.560302734    
 708-12-64       2563.0000000        2575.4326172       -12.432617188    
 708-17-3        2561.0000000        2569.8579102       -8.8579101562    
 708-22-38       2547.0000000        2551.4965820       -4.4965820312    
 708-26-287      2532.0000000        2530.6286621        1.3713378906    
 708-31-335      2523.0000000        2519.5415039        3.4584960938    
 708-42-350      2497.0000000        2496.2917480       0.70825195312    
 708-48-343      2502.0000000        2494.2226562        7.7773437500    
 685-1-365       2591.0000000        2595.7607422       -4.7607421875    
 674-22-38       2556.0000000        2559.7238770       -3.7238769531    
 674-31-344      2533.0000000        2525.8271484        7.1728515625    
 674-42-350      2506.0000000        2498.0253906        7.9746093750    
 674-48-343      2513.0000000        2499.1918945        13.808105469    
 674-56-19       2518.0000000        2484.2399902        33.760009766    
 674-61-60       2556.0000000        2476.2646484        79.735351562    
 674-66-48       2580.0000000        2507.5712891        72.428710938    
 676-27-10       2543.0000000        2542.6042480       0.39575195312    
 687-17-3        2567.0000000        2575.6220703       -8.6220703125    
 687-22-38       2551.0000000        2556.8010254       -5.8010253906    
 687-27-11       2542.0000000        2538.3137207        3.6862792969    
 687-42-350      2486.0000000        2498.0646973       -12.064697266    
 687-48-343      2502.0000000        2499.0246582        2.9753417969    
 687-56-19       2504.0000000        2483.1987305        20.801269531    
 687-61-55       2542.0000000        2471.8242188        70.175781250    
 687-66-46       2569.0000000        2499.7636719        69.236328125    
 686-56-19       2495.0000000        2479.8657227        15.134277344    
 686-66-46       2558.0000000        2493.2993164        64.700683594    
 677-17-53       2576.0000000        2576.9436035      -0.94360351562    
 677-22-38       2559.0000000        2559.1723633      -0.17236328125    
 677-26-299      2550.0000000        2541.9084473        8.0915527344    
 677-31-337      2534.0000000        2525.9001465        8.0998535156    
 677-37-336      2522.0000000        2503.2397461        18.760253906    
 677-42-350      2496.0000000        2498.4057617       -2.4057617188    
 677-48-343      2506.0000000        2500.9821777        5.0178222656    
 677-56-19       2507.0000000        2483.3979492        23.602050781    
 677-61-55       2540.0000000        2473.9965820        66.003417969    
 677-66-46       2576.0000000        2507.7099609        68.290039062    
 675-5-102       2577.0000000        2589.9648438       -12.964843750    
 675-11-305      2574.0000000        2588.1496582       -14.149658203    
 675-27-11       2549.0000000        2542.2382812        6.7617187500    
 665-17-53       2574.0000000        2579.2045898       -5.2045898438    
 665-22-38       2554.0000000        2561.2514648       -7.2514648438    
 665-27-11       2551.0000000        2544.0000000        7.0000000000    
 665-36-357      2509.0000000        2506.0878906        2.9121093750    
 665-42-350      2499.0000000        2497.6813965        1.3186035156    
 665-56-19       2510.0000000        2483.6794434        26.320556641    
 665-61-55       2552.0000000        2484.1013184        67.898681641    
 665-66-46       2586.0000000        2529.8623047        56.137695312    
 657-48-343      2507.0000000        2502.1494141        4.8505859375    
 649-3-294       2582.0000000        2600.4343262       -18.434326172    
 649-6-290       2584.0000000        2590.2758789       -6.2758789062    
 649-11-307      2579.0000000        2593.5524902       -14.552490234    
 649-17-3        2574.0000000        2581.8876953       -7.8876953125    
 649-22-38       2549.0000000        2563.6799316       -14.679931641    
 649-26-287      2552.0000000        2547.2753906        4.7246093750    
 649-31-335      2532.0000000        2527.2512207        4.7487792969    
 649-38-60       2521.0000000        2502.1989746        18.801025391    
 649-42-350      2502.0000000        2496.3566895        5.6433105469    
 649-48-343      2512.0000000        2502.2185059        9.7814941406    
 649-56-19       2516.0000000        2482.9409180        33.059082031    
 649-61-55       2570.0000000        2485.0876465        84.912353516    
 651-3-294       2582.0000000        2600.8886719       -18.888671875    
 651-6-290       2584.0000000        2591.3742676       -7.3742675781    
 651-11-307      2579.0000000        2593.4296875       -14.429687500    
 651-17-52       2575.0000000        2582.0410156       -7.0410156250    
 651-27-11       2555.0000000        2547.3112793        7.6887207031    
 651-42-350      2502.0000000        2497.3593750        4.6406250000    
 651-48-343      2513.0000000        2501.6105957        11.389404297    
 651-56-19       2517.0000000        2484.3679199        32.632080078    
 651-61-60       2571.0000000        2482.1496582        88.850341797    
 651-66-46       2592.0000000        2524.4533691        67.546630859    
 679-17-52       2569.0000000        2579.4890137       -10.489013672    
 679-22-37       2550.0000000        2555.9331055       -5.9331054688    
 679-26-336      2534.0000000        2541.9379883       -7.9379882812    
 679-48-362      2499.0000000        2495.9475098        3.0524902344    
 679-56-9        2503.0000000        2485.7553711        17.244628906    
 679-61-47       2506.0000000        2474.6262207        31.373779297    
 679-65-357      2539.0000000        2490.7692871        48.230712891    
 679-71-362      2559.0000000        2508.9829102        50.017089844    
 680-17-52       2574.0000000        2581.3439941       -7.3439941406    
 680-22-82       2554.0000000        2557.5021973       -3.5021972656    
 680-27-62       2543.0000000        2543.7863770      -0.78637695312    
 680-31-335      2516.0000000        2524.8662109       -8.8662109375    
 680-39-60       2491.0000000        2505.8210449       -14.821044922    
 680-43-4        2504.0000000        2501.2080078        2.7919921875    
 680-48-362      2506.0000000        2496.0310059        9.9689941406    
 680-56-9        2508.0000000        2486.9367676        21.063232422    
 680-61-47       2508.0000000        2476.0590820        31.940917969    
 680-65-357      2540.0000000        2487.5407715        52.459228516    
 680-71-362      2560.0000000        2505.3327637        54.667236328    
 684-17-52       2569.0000000        2576.9584961       -7.9584960938    
 684-22-37       2552.0000000        2556.6940918       -4.6940917969    
 684-26-349      2529.0000000        2539.8417969       -10.841796875    
 684-31-335      2515.0000000        2523.7666016       -8.7666015625    
 684-48-362      2497.0000000        2496.2343750       0.76562500000    
 684-56-9        2504.0000000        2484.1972656        19.802734375    
 684-66-1        2542.0000000        2493.0368652        48.963134766    
 684-71-362      2561.0000000        2510.8288574        50.171142578    
 664-1-365       2593.0000000        2602.7714844       -9.7714843750    
 654-12-67       2578.0000000        2592.9223633       -14.922363281    
 654-17-52       2574.0000000        2583.5117188       -9.5117187500    
 654-22-37       2548.0000000        2564.3928223       -16.392822266    
 654-26-285      2532.0000000        2549.7089844       -17.708984375    
 654-31-335      2524.0000000        2528.6677246       -4.6677246094    
 654-38-32       2520.0000000        2505.4760742        14.523925781    
 654-42-349      2476.0000000        2499.2475586       -23.247558594    
 654-48-343      2493.0000000        2500.3510742       -7.3510742188    
 654-56-19       2506.0000000        2486.2451172        19.754882812    
 654-61-60       2512.0000000        2477.3435059        34.656494141    
 654-66-49       2540.0000000        2505.5126953        34.487304688    
 658-32-41       2519.0000000        2530.1657715       -11.165771484    
 658-36-357      2482.0000000        2514.6784668       -32.678466797    
 658-43-4        2484.0000000        2504.3862305       -20.386230469    
 658-48-362      2493.0000000        2497.0864258       -4.0864257812    
 658-56-9        2515.0000000        2487.7158203        27.284179688    
 658-61-47       2509.0000000        2477.1464844        31.853515625    
 658-65-357      2542.0000000        2489.5000000        52.500000000    
 658-71-362      2564.0000000        2509.2175293        54.782470703    
 673-35-360      2507.0000000        2518.6848145       -11.684814453    
 673-56-9        2508.0000000        2488.7141113        19.285888672    
 673-61-47       2504.0000000        2479.0090332        24.990966797    
 673-65-357      2527.0000000        2485.5319824        41.468017578    
 673-70-334      2545.0000000        2500.2421875        44.757812500    
 673-71-362      2550.0000000        2503.9438477        46.056152344    
 653-32-41       2506.0000000        2536.1196289       -30.119628906    
 653-39-32       2513.0000000        2515.7792969       -2.7792968750    
 653-43-4        2493.0000000        2509.6835938       -16.683593750    
 653-48-362      2495.0000000        2497.9562988       -2.9562988281    
 653-56-9        2514.0000000        2490.5283203        23.471679688    
 653-61-47       2500.0000000        2481.4782715        18.521728516    
 653-65-357      2517.0000000        2486.7915039        30.208496094    
 653-71-362      2552.0000000        2505.9365234        46.063476562    
 642-36-352      2607.0000000        2598.1784668        8.8215332031    
 642-43-4        2588.0000000        2578.6289062        9.3710937500    
 642-48-362      2581.0000000        2562.0476074        18.952392578    
 642-56-9        2580.0000000        2553.1520996        26.847900391    
 642-61-47       2572.0000000        2544.4858398        27.514160156    
 642-65-357      2568.0000000        2539.2783203        28.721679688    
 642-71-362      2571.0000000        2538.3601074        32.639892578    
 637-26-295      2608.0000000        2600.9648438        7.0351562500    
 637-31-349      2611.0000000        2590.6120605        20.387939453    
 637-36-352      2607.0000000        2576.8056641        30.194335938    
 637-43-4        2578.0000000        2557.1845703        20.815429688    
 637-48-362      2568.0000000        2540.1374512        27.862548828    
 637-56-9        2569.0000000        2527.1384277        41.861572266    
 637-61-47       2559.0000000        2518.0895996        40.910400391    
 637-65-357      2553.0000000        2515.5185547        37.481445312    
 637-71-362      2566.0000000        2523.2270508        42.772949219    
 624-7-99        2610.0000000        2624.7773438       -14.777343750    
 624-12-103      2609.0000000        2622.2399902       -13.239990234    
 624-17-52       2607.0000000        2619.3510742       -12.351074219    
 624-22-39       2605.0000000        2613.9953613       -8.9953613281    
 624-27-5        2602.0000000        2606.6523438       -4.6523437500    
 624-32-1        2598.0000000        2597.5979004       0.40209960938    
 595-37-32       2599.0000000        2582.8278809        16.172119141    
 595-43-4        2582.0000000        2561.9406738        20.059326172    
 595-48-362      2558.0000000        2546.2009277        11.799072266    
 595-56-9        2570.0000000        2535.1755371        34.824462891    
 595-61-47       2560.0000000        2524.6511230        35.348876953    
 595-65-357      2558.0000000        2522.1918945        35.808105469    
 595-71-362      2564.0000000        2529.7702637        34.229736328    
 604-31-323      2609.0000000        2611.1723633       -2.1723632812    
 604-37-32       2621.0000000        2597.7846680        23.215332031    
 604-43-4        2602.0000000        2579.2587891        22.741210938    
 604-48-362      2594.0000000        2566.0014648        27.998535156    
 604-56-9        2588.0000000        2555.8701172        32.129882812    
 604-61-47       2574.0000000        2546.7011719        27.298828125    
 604-65-357      2571.0000000        2542.1162109        28.883789062    
 604-71-362      2569.0000000        2543.7651367        25.234863281    
 596-36-352      2575.0000000        2559.4074707        15.592529297    
 596-43-4        2524.0000000        2540.8725586       -16.872558594    
 596-48-362      2513.0000000        2524.3078613       -11.307861328    
 596-56-9        2539.0000000        2513.6311035        25.368896484    
 596-61-47       2514.0000000        2504.0756836        9.9243164062    
 596-65-357      2515.0000000        2505.2070312        9.7929687500    
 596-71-362      2556.0000000        2515.5095215        40.490478516    
 609-43-4        2521.0000000        2508.7277832        12.272216797    
 609-56-9        2525.0000000        2494.7529297        30.247070312    
 609-61-47       2518.0000000        2483.2211914        34.778808594    
 609-65-357      2540.0000000        2495.8886719        44.111328125    
 609-71-362      2563.0000000        2513.2438965        49.756103516    
 639-27-10       2551.0000000        2554.9504395       -3.9504394531    
 639-66-49       2549.0000000        2501.3203125        47.679687500    
 626-27-10       2555.0000000        2559.0349121       -4.0349121094    
 626-42-349      2510.0000000        2503.9448242        6.0551757812    
 626-48-343      2512.0000000        2502.5690918        9.4309082031    
 626-56-19       2525.0000000        2490.7827148        34.217285156    
 626-61-60       2519.0000000        2479.8854980        39.114501953    
 626-66-49       2548.0000000        2500.8176270        47.182373047    
 635-17-52       2587.0000000        2591.4096680       -4.4096679688    
 635-22-38       2568.0000000        2574.0021973       -6.0021972656    
 635-26-280      2551.0000000        2560.7236328       -9.7236328125    
 635-42-349      2495.0000000        2506.1240234       -11.124023438    
 635-48-343      2520.0000000        2501.5444336        18.455566406    
 635-56-19       2524.0000000        2491.4914551        32.508544922    
 635-61-60       2522.0000000        2480.6062012        41.393798828    
 635-66-49       2547.0000000        2496.5124512        50.487548828    
 629-11-307      2590.0000000        2598.2854004       -8.2854003906    
 629-16-364      2586.0000000        2587.9714355       -1.9714355469    
 629-21-332      2577.0000000        2569.6301270        7.3698730469    
 629-26-287      2575.0000000        2554.6699219        20.330078125    
 629-31-335      2555.0000000        2531.2995605        23.700439453    
 629-37-32       2545.0000000        2509.1232910        35.876708984    
 629-48-343      2540.0000000        2502.8513184        37.148681641    
 629-56-23       2541.0000000        2486.9296875        54.070312500    
 629-61-60       2574.0000000        2478.2993164        95.700683594    
 629-66-46       2595.0000000        2511.4912109        83.508789062    
 628-11-307      2587.0000000        2599.1833496       -12.183349609    
 628-17-52       2582.0000000        2589.0720215       -7.0720214844    
 628-36-356      2511.0000000        2512.5227051       -1.5227050781    
 628-42-349      2508.0000000        2501.2153320        6.7846679688    
 628-48-343      2521.0000000        2502.4833984        18.516601562    
 628-56-19       2531.0000000        2488.8439941        42.156005859    
 628-61-60       2532.0000000        2478.6418457        53.358154297    
 628-66-46       2549.0000000        2503.8264160        45.173583984    
 630-12-310      2581.0000000        2594.7043457       -13.704345703    
 630-17-3        2586.0000000        2586.7275391      -0.72753906250    
 630-22-38       2558.0000000        2568.1635742       -10.163574219    
 630-27-11       2563.0000000        2551.2749023        11.725097656    
 630-36-357      2528.0000000        2506.1694336        21.830566406    
 630-42-350      2531.0000000        2495.3798828        35.620117188    
 630-48-343      2536.0000000        2503.1994629        32.800537109    
 630-56-19       2538.0000000        2484.2309570        53.769042969    
 630-61-60       2582.0000000        2481.2680664        100.73193359    
 630-66-46       2596.0000000        2525.9558105        70.044189453    
 631-17-3        2582.0000000        2588.3251953       -6.3251953125    
 631-22-32       2552.0000000        2569.3159180       -17.315917969    
 631-26-289      2555.0000000        2551.0864258        3.9135742188    
 631-31-335      2534.0000000        2524.8547363        9.1452636719    
 631-33-335      2527.0000000        2511.0505371        15.949462891    
 631-42-350      2508.0000000        2490.6669922        17.333007812    
 631-48-343      2519.0000000        2503.2998047        15.700195312    
 631-56-19       2524.0000000        2478.6872559        45.312744141    
 631-61-55       2581.0000000        2474.7014160        106.29858398    
 631-66-46       2598.0000000        2528.0834961        69.916503906    
 593-27-11       2564.0000000        2552.8835449        11.116455078    
 593-61-55       2584.0000000        2468.6694336        115.33056641    
 593-66-46       2601.0000000        2519.1750488        81.824951172    
 592-1-365       2597.0000000        2617.3403320       -20.340332031    
 587-7-101       2597.0000000        2603.0307617       -6.0307617188    
 587-11-307      2592.0000000        2603.7863770       -11.786376953    
 587-17-53       2588.0000000        2591.2890625       -3.2890625000    
 587-26-287      2560.0000000        2554.8500977        5.1499023438    
 587-31-335      2541.0000000        2523.6196289        17.380371094    
 587-38-60       2529.0000000        2493.9951172        35.004882812    
 587-42-350      2514.0000000        2484.4960938        29.503906250    
 587-48-343      2528.0000000        2504.0515137        23.948486328    
 587-56-19       2533.0000000        2479.3066406        53.693359375    
 587-61-55       2583.0000000        2456.0280762        126.97192383    
 587-66-46       2601.0000000        2498.6494141        102.35058594    
 591-11-333      2581.0000000        2603.5036621       -22.503662109    
 591-17-53       2583.0000000        2591.9685059       -8.9685058594    
 591-42-350      2513.0000000        2490.2893066        22.710693359    
 597-6-79        2592.0000000        2603.5139160       -11.513916016    
 597-11-307      2591.0000000        2603.1242676       -12.124267578    
 597-17-53       2582.0000000        2591.6577148       -9.6577148438    
 597-26-287      2562.0000000        2557.1916504        4.8083496094    
 597-42-350      2512.0000000        2492.5202637        19.479736328    
 597-48-343      2526.0000000        2505.0561523        20.943847656    
 597-56-19       2531.0000000        2485.2785645        45.721435547    
 597-61-60       2565.0000000        2476.2241211        88.775878906    
 597-66-46       2587.0000000        2517.0922852        69.907714844    
 607-42-349      2527.0000000        2497.9294434        29.070556641    
 607-48-343      2540.0000000        2504.3930664        35.606933594    
 607-56-23       2545.0000000        2488.0270996        56.972900391    
 607-61-60       2554.0000000        2477.7126465        76.287353516    
 607-66-46       2584.0000000        2510.7016602        73.298339844    
 568-48-343      2551.0000000        2507.3032227        43.696777344    
 568-56-10       2554.0000000        2491.6523438        62.347656250    
 568-61-61       2538.0000000        2475.9045410        62.095458984    
 560-1-358       2617.0000000        2622.0642090       -5.0642089844    
 560-6-340       2617.0000000        2609.4340820        7.5659179688    
 560-10-349      2599.0000000        2609.5266113       -10.526611328    
 545-38-6        2479.0000000        2464.4089355        14.591064453    
 545-42-356      2524.0000000        2466.5671387        57.432861328    
 538-1-365       2620.0000000        2627.9877930       -7.9877929688    
 517-7-49        2615.0000000        2615.3842773      -0.38427734375    
 574-56-24       2534.0000000        2495.0532227        38.946777344    
 574-61-61       2529.0000000        2482.1770020        46.822998047    
 574-66-33       2544.0000000        2498.4016113        45.598388672    
 580-1-365       2614.0000000        2620.0886230       -6.0886230469    
 555-8-357       2608.0000000        2613.0170898       -5.0170898438    
 555-12-67       2604.0000000        2611.7268066       -7.7268066406    
 555-27-10       2570.0000000        2570.7727051      -0.77270507812    
 555-31-335      2561.0000000        2546.0812988        14.918701172    
 555-38-60       2550.0000000        2514.4494629        35.550537109    
 555-56-24       2557.0000000        2497.1635742        59.836425781    
 555-61-60       2550.0000000        2482.3835449        67.616455078    
 555-66-33       2562.0000000        2497.4833984        64.516601562    
 547-1-365       2616.0000000        2626.1894531       -10.189453125    
 546-27-10       2574.0000000        2571.3085938        2.6914062500    
 539-56-10       2551.0000000        2498.4418945        52.558105469    
 539-61-60       2539.0000000        2482.8505859        56.149414062    
 539-66-33       2553.0000000        2494.0380859        58.961914062    
 573-48-362      2549.0000000        2510.9133301        38.086669922    
 573-56-9        2550.0000000        2503.1357422        46.864257812    
 573-71-362      2581.0000000        2509.4326172        71.567382812    
 808-48-335      2558.0000000        2542.2644043        15.735595703    
 808-66-33       2546.0000000        2507.1801758        38.819824219    
 808-71-61       2531.0000000        2495.2656250        35.734375000    
 807-26-349      2539.0000000        2526.7700195        12.229980469    
 807-43-4        2524.0000000        2492.0603027        31.939697266    
 807-48-341      2491.0000000        2479.5527344        11.447265625    
 805-56-9        2512.0000000        2467.8525391        44.147460938    
 807-56-9        2486.0000000        2466.9096680        19.090332031    
 807-61-47       2499.0000000        2459.4521484        39.547851562    
 805-65-357      2511.0000000        2453.2224121        57.777587891    
 807-65-357      2507.0000000        2452.1557617        54.844238281    
 805-71-362      2516.0000000        2450.7756348        65.224365234    
 807-71-362      2516.0000000        2449.9865723        66.013427734    
 810-43-4        2471.0000000        2458.8256836        12.174316406    
 810-48-362      2465.0000000        2449.8295898        15.170410156    
 810-61-47       2472.0000000        2420.2150879        51.784912109    
 810-65-357      2509.0000000        2411.7263184        97.273681641    
 810-71-362      2533.0000000        2415.0402832        117.95971680    
 767-48-335      2562.0000000        2541.1682129        20.831787109    
 761-31-335      2494.0000000        2502.6313477       -8.6313476562    
 761-37-320      2488.0000000        2485.2353516        2.7646484375    
 761-42-355      2468.0000000        2481.8881836       -13.888183594    
 761-48-342      2479.0000000        2472.6037598        6.3962402344    
 761-56-18       2481.0000000        2462.3559570        18.644042969    
 761-61-54       2480.0000000        2447.1953125        32.804687500    
 761-66-33       2511.0000000        2443.4877930        67.512207031    
 763-42-355      2484.0000000        2490.2604980       -6.2604980469    
 763-48-342      2488.0000000        2480.6972656        7.3027343750    
 763-56-18       2488.0000000        2469.2116699        18.788330078    
 763-61-56       2488.0000000        2457.4479980        30.552001953    
 763-66-33       2514.0000000        2453.9746094        60.025390625    
 802-56-9        2469.0000000        2444.7880859        24.211914062    
 802-61-47       2460.0000000        2425.6018066        34.398193359    
 802-65-357      2496.0000000        2418.7128906        77.287109375    
 802-71-362      2515.0000000        2423.3461914        91.653808594    
 781-61-54       2482.0000000        2432.6132812        49.386718750    
 781-66-33       2514.0000000        2426.7126465        87.287353516    
 775-56-27       2485.0000000        2452.8420410        32.157958984    
 775-61-54       2484.0000000        2433.1906738        50.809326172    
 775-66-33       2515.0000000        2427.4296875        87.570312500    
 786-66-33       2504.0000000        2426.2084961        77.791503906    
 782-26-336      2502.0000000        2501.8469238       0.15307617188    
 782-31-335      2489.0000000        2491.1696777       -2.1696777344    
 782-43-4        2455.0000000        2470.3630371       -15.363037109    
 782-48-362      2463.0000000        2462.2172852       0.78271484375    
 782-56-9        2471.0000000        2452.0036621        18.996337891    
 782-61-47       2456.0000000        2432.7456055        23.254394531    
 782-65-357      2505.0000000        2426.6518555        78.348144531    
 782-71-362      2523.0000000        2434.9992676        88.000732422    
 755-27-12       2512.0000000        2510.9384766        1.0615234375    
 755-31-348      2492.0000000        2499.6718750       -7.6718750000    
 755-37-26       2467.0000000        2483.4716797       -16.471679688    
 755-42-357      2472.0000000        2479.4543457       -7.4543457031    
 755-48-342      2464.0000000        2473.6420898       -9.6420898438    
 755-56-18       2477.0000000        2463.5859375        13.414062500    
 755-60-320      2475.0000000        2445.0173340        29.982666016    
 755-65-298      2509.0000000        2441.6042480        67.395751953    
 755-71-365      2524.0000000        2452.3454590        71.654541016    
 776-42-354      2621.0000000        2654.7880859       -33.788085938    
 776-48-335      2625.0000000        2651.7355957       -26.735595703    
 776-56-17       2621.0000000        2646.7592773       -25.759277344    
 776-61-53       2616.0000000        2642.2956543       -26.295654297    
 785-32-62       2582.0000000        2606.3469238       -24.346923828    
 785-37-32       2565.0000000        2603.2736816       -38.273681641    
 785-48-334      2578.0000000        2591.2133789       -13.213378906    
 785-56-19       2574.0000000        2582.1257324       -8.1257324219    
 785-66-33       2559.0000000        2559.9318848      -0.93188476562    
 784-32-62       2579.0000000        2607.0236816       -28.023681641    
 784-66-33       2552.0000000        2560.9099121       -8.9099121094    
 777-32-6        2568.0000000        2589.9428711       -21.942871094    
 777-37-32       2563.0000000        2585.3408203       -22.340820312    
 777-42-355      2560.0000000        2578.6447754       -18.644775391    
 777-48-334      2557.0000000        2570.0134277       -13.013427734    
 777-56-18       2552.0000000        2559.2675781       -7.2675781250    
 778-42-355      2583.0000000        2578.6125488        4.3874511719    
 778-48-334      2582.0000000        2569.9384766        12.061523438    
 778-56-18       2572.0000000        2559.1921387        12.807861328    
 778-60-321      2563.0000000        2550.1875000        12.812500000    
 778-65-299      2553.0000000        2537.9187012        15.081298828    
 778-71-365      2542.0000000        2523.2211914        18.778808594    
 779-42-355      2598.0000000        2578.6125488        19.387451172    
 779-48-334      2600.0000000        2569.9384766        30.061523438    
 779-56-18       2594.0000000        2559.1921387        34.807861328    
 779-60-321      2587.0000000        2550.1875000        36.812500000    
 779-65-299      2574.0000000        2537.9187012        36.081298828    
 779-71-365      2564.0000000        2523.2211914        40.778808594    
 801-36-310      2530.0000000        2574.2055664       -44.205566406    
 797-65-356      2527.0000000        2522.2922363        4.7077636719    
 797-71-362      2516.0000000        2509.0241699        6.9758300781    
 768-42-355      2572.0000000        2570.7548828        1.2451171875    
 768-48-335      2565.0000000        2560.3718262        4.6281738281    
 732-36-316      2606.0000000        2596.0241699        9.9758300781    
 765-32-6        2602.0000000        2600.6416016        1.3583984375    
 765-42-355      2590.0000000        2591.0495605       -1.0495605469    
 765-48-348      2588.0000000        2583.3378906        4.6621093750    
 765-56-11       2585.0000000        2573.6684570        11.331542969    
 765-61-48       2578.0000000        2564.9074707        13.092529297    
 765-65-356      2569.0000000        2552.8947754        16.105224609    
 765-71-362      2559.0000000        2538.8186035        20.181396484    
 718-37-32       2606.0000000        2647.6447754       -41.644775391    
 718-48-334      2620.0000000        2639.8203125       -19.820312500    
 718-56-16       2618.0000000        2632.9577637       -14.957763672    
 718-61-53       2611.0000000        2627.4414062       -16.441406250    
 718-66-32       2605.0000000        2620.7333984       -15.733398438    
 718-71-60       2597.0000000        2612.4404297       -15.440429688    
 728-7-85        2589.0000000        2610.8112793       -21.811279297    
 728-12-124      2591.0000000        2610.0844727       -19.084472656    
 728-17-78       2590.0000000        2608.8862305       -18.886230469    
 728-27-5        2585.0000000        2603.9326172       -18.932617188    
 728-32-6        2583.0000000        2599.8439941       -16.843994141    
 728-37-32       2577.0000000        2594.7397461       -17.739746094    
 728-42-355      2577.0000000        2586.8491211       -9.8491210938    
 728-48-334      2571.0000000        2578.1318359       -7.1318359375    
 728-56-18       2565.0000000        2567.3356934       -2.3356933594    
 681-7-358       2622.0000000        2637.1574707       -15.157470703    
 681-12-103      2627.0000000        2636.9294434       -9.9294433594    
 681-17-78       2625.0000000        2636.3535156       -11.353515625    
 681-32-61       2617.0000000        2631.7197266       -14.719726562    
 681-37-32       2608.0000000        2629.0002441       -21.000244141    
 662-71-365      2600.0000000        2628.4868164       -28.486816406    
 616-42-355      2610.0000000        2634.4870605       -24.487060547    
 616-56-16       2613.0000000        2617.2558594       -4.2558593750    
 825-71-62       2683.0000000        2784.1530762       -101.15307617    
 608-32-62       2625.0000000        2656.7238770       -31.723876953    
 608-48-348      2612.0000000        2646.6699219       -34.669921875    
 608-56-11       2610.0000000        2640.2045898       -30.204589844    
 608-61-41       2604.0000000        2634.9980469       -30.998046875    
 608-65-355      2598.0000000        2630.1047363       -32.104736328    
 608-71-365      2590.0000000        2621.8154297       -31.815429688    
 559-8-73        2650.0000000        2685.8940430       -35.894042969    
 559-12-60       2648.0000000        2685.8354492       -37.835449219    
 559-17-78       2645.0000000        2685.6550293       -40.655029297    
 559-32-62       2635.0000000        2684.2416992       -49.241699219    
 559-36-335      2633.0000000        2683.4238281       -50.423828125    
 806-71-62       2679.0000000        2786.3706055       -107.37060547    
 771-43-68       2683.0000000        2727.7133789       -44.713378906    
 764-43-68       2679.0000000        2709.2395020       -30.239501953    
 764-48-342      2689.0000000        2707.6364746       -18.636474609    
 764-56-17       2685.0000000        2704.5576172       -19.557617188    
 764-61-60       2681.0000000        2702.6345215       -21.634521484    
 764-66-19       2671.0000000        2699.2844238       -28.284423828    
 764-71-63       2637.0000000        2690.3381348       -53.338134766    
 731-32-61       2676.0000000        2726.9682617       -50.968261719    
 731-42-355      2676.0000000        2723.6145020       -47.614501953    
 730-48-342      2689.0000000        2722.2392578       -33.239257812    
 730-56-17       2682.0000000        2719.8630371       -37.863037109    
 730-60-320      2678.0000000        2718.6733398       -40.673339844    
 730-71-365      2653.0000000        2709.2658691       -56.265869141    
 725-48-343      2682.0000000        2720.8918457       -38.891845703    
 725-56-16       2675.0000000        2718.3571777       -43.357177734    
 725-61-59       2671.0000000        2716.7861328       -45.786132812    
 725-66-19       2660.0000000        2712.8979492       -52.897949219    
 725-71-63       2649.0000000        2708.5371094       -59.537109375    
 683-7-360       2686.0000000        2720.2563477       -34.256347656    
 683-12-102      2682.0000000        2720.1542969       -38.154296875    
 683-17-78       2681.0000000        2719.9521484       -38.952148438    
 683-32-61       2678.0000000        2720.3442383       -42.344238281    
 683-37-32       2678.0000000        2720.7087402       -42.708740234    
 683-48-342      2690.0000000        2718.9055176       -28.905517578    
 528-56-10       2551.0000000        2488.3315430        62.668457031    
 528-61-56       2563.0000000        2469.2353516        93.764648438    
 528-66-34       2585.0000000        2487.2551270        97.744873047    
 532-56-10       2465.0000000        2489.7368164       -24.736816406    
 532-61-56       2464.0000000        2468.3166504       -4.3166503906    
 523-42-363      2441.0000000        2437.8930664        3.1069335938    
 523-48-343      2487.0000000        2499.1867676       -12.186767578    
 523-56-10       2443.0000000        2471.4597168       -28.459716797    
 523-61-56       2416.0000000        2451.9409180       -35.940917969    
 506-31-282      2501.0000000        2531.9436035       -30.943603516    
 506-56-10       2455.0000000        2486.0092773       -31.009277344    
 506-60-321      2429.0000000        2467.7158203       -38.715820312    
 516-56-10       2456.0000000        2478.8295898       -22.829589844    
 516-61-56       2430.0000000        2458.3498535       -28.349853516    
 507-17-55       2618.0000000        2612.5815430        5.4184570312    
 507-22-40       2610.0000000        2596.8503418        13.149658203    
 507-26-299      2574.0000000        2577.1437988       -3.1437988281    
 507-31-335      2512.0000000        2536.0480957       -24.048095703    
 507-48-343      2489.0000000        2506.7431641       -17.743164062    
 507-56-10       2454.0000000        2492.9208984       -38.920898438    
 496-17-55       2616.0000000        2621.2265625       -5.2265625000    
 496-22-40       2601.0000000        2604.2988281       -3.2988281250    
 496-31-335      2517.0000000        2552.9045410       -35.904541016    
 492-56-10       2460.0000000        2498.1992188       -38.199218750    
 492-61-60       2433.0000000        2479.7392578       -46.739257812    
 492-66-31       2444.0000000        2475.1721191       -31.172119141    
 466-56-10       2485.0000000        2520.0617676       -35.061767578    
 466-61-60       2462.0000000        2505.6884766       -43.688476562    
 466-66-34       2469.0000000        2490.3156738       -21.315673828    
 462-56-10       2487.0000000        2524.5725098       -37.572509766    
 462-61-60       2467.0000000        2511.4799805       -44.479980469    
 462-66-34       2471.0000000        2495.8781738       -24.878173828    
 476-56-10       2543.0000000        2496.7641602        46.235839844    
 476-61-60       2520.0000000        2478.8496094        41.150390625    
 465-56-10       2488.0000000        2519.9790039       -31.979003906    
 465-61-60       2465.0000000        2505.4340820       -40.434082031    
 465-66-34       2471.0000000        2489.9936523       -18.993652344    
 460-1-365       2621.0000000        2663.3896484       -42.389648438    
 458-38-7        2512.0000000        2519.1938477       -7.1938476562    
 458-48-336      2521.0000000        2501.5925293        19.407470703    
 458-56-10       2500.0000000        2499.8237305       0.17626953125    
 458-61-60       2475.0000000        2484.1933594       -9.1933593750    
 458-66-54       2482.0000000        2467.3701172        14.629882812    
 458-71-34       2477.0000000        2455.5270996        21.472900391    
 440-38-6        2577.0000000        2516.4199219        60.580078125    
 440-42-356      2567.0000000        2499.0554199        67.944580078    
 440-48-337      2577.0000000        2515.0573730        61.942626953    
 443-1-365       2655.0000000        2671.3071289       -16.307128906    
 439-1-358       2668.0000000        2674.9082031       -6.9082031250    
 439-4-350       2664.0000000        2667.5219727       -3.5219726562    
 449-10-89       2694.0000000        2660.5615234        33.438476562    
 418-48-342      2555.0000000        2712.8803711       -157.88037109    
 418-56-18       2536.0000000        2711.3864746       -175.38647461    
 415-48-342      2559.0000000        2668.3166504       -109.31665039    
 415-56-18       2540.0000000        2668.6164551       -128.61645508    
 421-34-313      2575.0000000        2608.7272949       -33.727294922    
 421-48-343      2651.0000000        2571.3579102        79.642089844    
 421-56-12       2520.0000000        2581.9006348       -61.900634766    
 421-61-60       2505.0000000        2572.0112305       -67.011230469    
 417-34-60       2622.0000000        2632.8474121       -10.847412109    
 412-6-290       2682.0000000        2684.4177246       -2.4177246094    
 412-10-297      2676.0000000        2680.1936035       -4.1936035156    
 412-17-4        2653.0000000        2665.8095703       -12.809570312    
 412-27-12       2630.0000000        2622.4685059        7.5314941406    
 412-38-6        2587.0000000        2539.3322754        47.667724609    
 412-42-356      2584.0000000        2525.1621094        58.837890625    
 412-48-336      2593.0000000        2537.1279297        55.872070312    
 411-48-336      2587.0000000        2501.7609863        85.239013672    
 411-56-11       2548.0000000        2503.7316895        44.268310547    
 411-61-60       2529.0000000        2488.3139648        40.686035156    
 411-66-54       2524.0000000        2462.2856445        61.714355469    
 411-71-33       2510.0000000        2434.1320801        75.867919922    
 405-38-6        2576.0000000        2508.6921387        67.307861328    
 405-42-355      2545.0000000        2517.7651367        27.234863281    
 405-48-334      2569.0000000        2486.8542480        82.145751953    
 405-56-11       2572.0000000        2490.4221191        81.577880859    
 405-61-60       2539.0000000        2476.7187500        62.281250000    
 405-66-54       2530.0000000        2448.0195312        81.980468750    
 405-71-33       2515.0000000        2414.0925293        100.90747070    
 396-17-4        2673.0000000        2674.4296875       -1.4296875000    
 396-27-12       2636.0000000        2629.2937012        6.7062988281    
 396-38-6        2595.0000000        2536.6691895        58.330810547    
 396-42-355      2564.0000000        2531.8444824        32.155517578    
 396-48-336      2581.0000000        2543.1735840        37.826416016    
 393-1-358       2703.0000000        2707.6193848       -4.6193847656    
 398-38-6        2565.0000000        2535.7458496        29.254150391    
 398-42-356      2540.0000000        2532.0888672        7.9111328125    
 387-42-356      2544.0000000        2539.2253418        4.7746582031    
 387-48-336      2564.0000000        2561.2983398        2.7016601562    
 387-56-11       2551.0000000        2561.6486816       -10.648681641    
 387-61-60       2535.0000000        2540.4768066       -5.4768066406    
 387-66-54       2531.0000000        2520.0302734        10.969726562    
 387-71-33       2515.0000000        2489.9123535        25.087646484    
 386-17-4        2684.0000000        2683.2885742       0.71142578125    
 386-27-12       2644.0000000        2636.9877930        7.0122070312    
 386-48-336      2595.0000000        2568.2700195        26.729980469    
 381-38-6        2578.0000000        2574.2412109        3.7587890625    
 381-42-356      2574.0000000        2562.0708008        11.929199219    
 381-48-336      2584.0000000        2571.1845703        12.815429688    
 361-26-295      2654.0000000        2646.3381348        7.6618652344    
 361-43-14       2526.0000000        2522.6987305        3.3012695312    
 361-56-12       2552.0000000        2582.5190430       -30.519042969    
 361-61-60       2534.0000000        2561.5703125       -27.570312500    
 361-66-31       2524.0000000        2542.2885742       -18.288574219    
 365-1-365       2700.0000000        2725.6555176       -25.655517578    
 364-42-356      2553.0000000        2478.2836914        74.716308594    
 363-1-365       2702.0000000        2720.9497070       -18.949707031    
 391-56-12       2551.0000000        2592.2922363       -41.292236328    
 391-61-60       2535.0000000        2558.0278320       -23.027832031    
 372-43-14       2535.0000000        2594.4660645       -59.466064453    
 372-56-12       2543.0000000        2596.7548828       -53.754882812    
 372-61-60       2535.0000000        2565.7387695       -30.738769531    
 375-56-19       2559.0000000        2619.7797852       -60.779785156    
 358-56-19       2556.0000000        2623.0808105       -67.080810547    
 350-56-19       2568.0000000        2626.9277344       -58.927734375    
 343-56-19       2566.0000000        2628.8969727       -62.896972656    
 345-43-6        2552.0000000        2653.1518555       -101.15185547    
 356-56-12       2558.0000000        2612.4758301       -54.475830078    
 356-61-60       2544.0000000        2587.9208984       -43.920898438    
 352-17-4        2694.0000000        2704.8127441       -10.812744141    
 352-22-51       2686.0000000        2681.8288574        4.1711425781    
 352-27-14       2662.0000000        2668.8610840       -6.8610839844    
 342-37-342      2587.0000000        2654.1245117       -67.124511719    
 342-43-14       2567.0000000        2640.3134766       -73.313476562    
 349-27-13       2659.0000000        2662.9599609       -3.9599609375    
 348-56-11       2621.0000000        2618.3356934        2.6643066406    
 348-61-54       2610.0000000        2602.1025391        7.8974609375    
 348-66-35       2604.0000000        2581.9072266        22.092773438    
 351-3-56        2741.0000000        2736.7048340        4.2951660156    
 351-22-46       2687.0000000        2680.7448730        6.2551269531    
 351-27-62       2672.0000000        2666.3200684        5.6799316406    
 351-37-342      2622.0000000        2630.3410645       -8.3410644531    
 351-43-14       2621.0000000        2619.8779297        1.1220703125    
 351-48-337      2632.0000000        2622.9323730        9.0676269531    
 351-56-11       2632.0000000        2621.2521973        10.747802734    
 351-61-54       2623.0000000        2602.4897461        20.510253906    
 351-66-35       2620.0000000        2585.9377441        34.062255859    
 346-17-4        2697.0000000        2708.7673340       -11.767333984    
 346-27-14       2658.0000000        2671.2866211       -13.286621094    
 347-11-304      2719.0000000        2725.0900879       -6.0900878906    
 347-17-59       2705.0000000        2705.9089355      -0.90893554688    
 347-22-46       2680.0000000        2685.2062988       -5.2062988281    
 347-27-14       2664.0000000        2670.1350098       -6.1350097656    
 347-31-335      2647.0000000        2658.1838379       -11.183837891    
 347-56-11       2625.0000000        2627.5031738       -2.5031738281    
 347-61-54       2617.0000000        2609.4279785        7.5720214844    
 347-66-35       2608.0000000        2592.7390137        15.260986328    
 341-17-4        2701.0000000        2711.0234375       -10.023437500    
 524-37-354      2605.0000000        2597.0883789        7.9116210938    
 524-43-4        2599.0000000        2585.3051758        13.694824219    
 524-48-335      2592.0000000        2573.3391113        18.660888672    
 524-56-9        2592.0000000        2563.1884766        28.811523438    
 524-61-47       2583.0000000        2554.6921387        28.307861328    
 524-65-357      2580.0000000        2550.7011719        29.298828125    
 524-71-362      2584.0000000        2551.8349609        32.165039062    
 3418-43-4       2540.0000000        2557.5468750       -17.546875000    
 3418-48-362     2529.0000000        2543.7971191       -14.797119141    
 3418-56-9       2554.0000000        2535.9003906        18.099609375    
 3418-65-357     2528.0000000        2517.5834961        10.416503906    
 3418-71-362     2567.0000000        2521.8193359        45.180664062    
 525-35-347      2563.0000000        2560.2470703        2.7529296875    
 525-56-9        2518.0000000        2518.2946777      -0.29467773438    
 525-71-362      2568.0000000        2511.9052734        56.094726562    
 514-31-335      2560.0000000        2569.0939941       -9.0939941406    
 514-36-360      2541.0000000        2539.5764160        1.4235839844    
 514-43-4        2545.0000000        2520.9262695        24.073730469    
 514-48-362      2545.0000000        2512.1997070        32.800292969    
 514-56-9        2548.0000000        2506.7336426        41.266357422    
 514-61-47       2536.0000000        2493.6225586        42.377441406    
 514-65-357      2542.0000000        2488.6308594        53.369140625    
 514-71-362      2568.0000000        2506.6804199        61.319580078    
 513-32-41       2552.0000000        2559.3662109       -7.3662109375    
 513-39-60       2558.0000000        2523.5544434        34.445556641    
 513-43-4        2538.0000000        2512.7102051        25.289794922    
 513-48-362      2544.0000000        2510.3176270        33.682373047    
 513-56-9        2553.0000000        2502.9819336        50.018066406    
 513-61-47       2533.0000000        2488.7155762        44.284423828    
 513-65-357      2541.0000000        2486.4812012        54.518798828    
 513-71-362      2568.0000000        2503.3549805        64.645019531    
 526-11-307      2603.0000000        2617.7170410       -14.717041016    
 526-17-53       2591.0000000        2608.3215332       -17.321533203    
 526-22-38       2579.0000000        2591.8562012       -12.856201172    
 487-17-4        2600.0000000        2618.8317871       -18.831787109    
 487-27-10       2590.0000000        2583.8081055        6.1918945312    
 487-38-6        2565.0000000        2521.7048340        43.295166016    
 487-42-356      2539.0000000        2504.7502441        34.249755859    
 494-42-355      2519.0000000        2502.1870117        16.812988281    
 494-48-334      2533.0000000        2501.4653320        31.534667969    
 494-56-10       2544.0000000        2492.0014648        51.998535156    
 494-61-60       2518.0000000        2482.9414062        35.058593750    
 494-66-49       2535.0000000        2477.5278320        57.472167969    
 494-71-33       2549.0000000        2479.0190430        69.980957031    
 530-38-6        2527.0000000        2488.1657715        38.834228516    
 530-48-334      2529.0000000        2500.2497559        28.750244141    
 530-56-10       2531.0000000        2485.4960938        45.503906250    
 530-61-60       2523.0000000        2471.1721191        51.827880859    
 530-66-49       2543.0000000        2485.2595215        57.740478516    
 530-71-33       2549.0000000        2491.9633789        57.036621094    
 509-38-6        2536.0000000        2496.8596191        39.140380859    
 509-42-355      2502.0000000        2486.0295410        15.970458984    
 509-48-334      2532.0000000        2501.5498047        30.450195312    
 509-56-10       2532.0000000        2491.0107422        40.989257812    
 509-61-60       2516.0000000        2475.6755371        40.324462891    
 509-66-49       2535.0000000        2477.6062012        57.393798828    
 509-71-33       2542.0000000        2481.4130859        60.586914062    
 518-17-3        2603.0000000        2609.2919922       -6.2919921875    
 518-27-11       2565.0000000        2573.7468262       -8.7468261719    
 518-42-355      2539.0000000        2486.7453613        52.254638672    
 510-1-358       2622.0000000        2636.8327637       -14.832763672    
 495-1-358       2628.0000000        2646.1547852       -18.154785156    
 491-7-49        2629.0000000        2633.3217773       -4.3217773438    
 490-7-49        2623.0000000        2634.4997559       -11.499755859    
 490-17-4        2607.0000000        2617.9040527       -10.904052734    
 490-27-10       2601.0000000        2582.1855469        18.814453125    
 481-38-7        2576.0000000        2505.6357422        70.364257812    
 481-42-355      2557.0000000        2489.7980957        67.201904297    
 481-48-334      2565.0000000        2498.3254395        66.674560547    
 481-56-10       2566.0000000        2490.0656738        75.934326172    
 481-61-60       2548.0000000        2472.9121094        75.087890625    
 481-66-49       2562.0000000        2464.9018555        97.098144531    
 481-71-33       2568.0000000        2464.1191406        103.88085938    
 473-38-7        2580.0000000        2516.2766113        63.723388672    
 473-42-355      2563.0000000        2495.2634277        67.736572266    
 484-38-6        2395.0000000        2494.0358887       -99.035888672    
 455-22-51       2600.0000000        2607.7885742       -7.7885742188    
 455-27-11       2605.0000000        2593.1281738        11.871826172    
 455-38-7        2560.0000000        2515.0805664        44.919433594    
 455-42-355      2542.0000000        2501.3645020        40.635498047    
 455-48-336      2559.0000000        2486.5969238        72.403076172    
 457-1-358       2645.0000000        2662.5261230       -17.526123047    
 456-38-6        2573.0000000        2510.6267090        62.373291016    
 456-42-356      2540.0000000        2497.8142090        42.185791016    
 456-48-334      2557.0000000        2478.9677734        78.032226562    
 456-56-10       2556.0000000        2473.0119629        82.988037109    
 456-61-60       2533.0000000        2453.9921875        79.007812500    
 456-66-54       2542.0000000        2442.6201172        99.379882812    
 456-71-33       2543.0000000        2433.5822754        109.41772461    
 454-8-253       2652.0000000        2637.2890625        14.710937500    
 454-38-6        2572.0000000        2518.5417480        53.458251953    
 454-42-355      2549.0000000        2503.8986816        45.101318359    
 454-48-334      2559.0000000        2494.4167480        64.583251953    
 454-56-10       2567.0000000        2487.6186523        79.381347656    
 454-61-60       2542.0000000        2471.5114746        70.488525391    
 454-66-49       2551.0000000        2459.2863770        91.713623047    
 454-71-33       2555.0000000        2451.4077148        103.59228516    
 483-48-334      2555.0000000        2512.6743164        42.325683594    
 475-1-365       2620.0000000        2649.3752441       -29.375244141    
 472-17-4        2609.0000000        2625.2277832       -16.227783203    
 472-27-12       2590.0000000        2589.0102539       0.98974609375    
 472-38-6        2566.0000000        2528.4438477        37.556152344    
 472-42-355      2533.0000000        2509.8984375        23.101562500    
 472-48-334      2548.0000000        2517.5415039        30.458496094    
 464-17-4        2599.0000000        2621.5966797       -22.596679688    
 464-27-12       2591.0000000        2592.8500977       -1.8500976562    
 464-48-336      2546.0000000        2502.3649902        43.635009766    
 442-71-61       2631.0000000        2602.4899902        28.510009766    
 438-48-336      2577.0000000        2533.5014648        43.498535156    
 436-71-336      2533.0000000        2465.3122559        67.687744141    
 422-17-55       2653.0000000        2651.1623535        1.8376464844    
 422-22-38       2624.0000000        2631.4304199       -7.4304199219    
 422-27-12       2625.0000000        2617.6159668        7.3840332031    
 422-31-335      2595.0000000        2599.2875977       -4.2875976562    
 422-38-91       2581.0000000        2561.0617676        19.938232422    
 426-48-336      2582.0000000        2541.2365723        40.763427734    
 426-56-13       2579.0000000        2537.0336914        41.966308594    
 426-66-34       2577.0000000        2514.5632324        62.436767578    
 430-7-49        2654.0000000        2661.3632812       -7.3632812500    
 430-17-4        2626.0000000        2642.3371582       -16.337158203    
 430-27-10       2612.0000000        2605.2180176        6.7819824219    
 432-38-6        2588.0000000        2519.5871582        68.412841797    
 432-42-356      2564.0000000        2505.7458496        58.254150391    
 432-48-334      2580.0000000        2491.0791016        88.920898438    
 432-56-10       2578.0000000        2484.4472656        93.552734375    
 432-61-60       2553.0000000        2467.6159668        85.384033203    
 432-66-49       2562.0000000        2452.0576172        109.94238281    
 432-71-33       2563.0000000        2437.7702637        125.22973633    
 452-48-335      2553.0000000        2515.1867676        37.813232422    
 452-56-11       2550.0000000        2511.2832031        38.716796875    
 431-1-358       2659.0000000        2672.6284180       -13.628417969    
 431-6-340       2656.0000000        2662.9519043       -6.9519042969    
 431-11-333      2649.0000000        2656.4895020       -7.4895019531    
 431-36-38       2623.0000000        2550.5075684        72.492431641    
 429-42-356      2535.0000000        2513.8718262        21.128173828    
 429-48-334      2555.0000000        2495.9853516        59.014648438    
 429-56-11       2556.0000000        2488.4707031        67.529296875    
 429-61-60       2526.0000000        2473.5065918        52.493408203    
 429-66-54       2537.0000000        2456.6855469        80.314453125    
 429-71-33       2536.0000000        2441.5380859        94.461914062    
 420-17-7        2664.0000000        2651.4685059        12.531494141    
 420-27-10       2631.0000000        2613.9384766        17.061523438    
 420-48-335      2595.0000000        2530.2519531        64.748046875    
 407-38-6        2581.0000000        2533.8503418        47.149658203    
 407-42-355      2554.0000000        2529.6398926        24.360107422    
 407-48-334      2561.0000000        2536.1083984        24.891601562    
 401-38-6        2603.0000000        2546.0895996        56.910400391    
 401-42-355      2590.0000000        2541.8276367        48.172363281    
 401-48-335      2603.0000000        2546.9807129        56.019287109    
 410-42-355      2552.0000000        2514.8093262        37.190673828    
 410-48-334      2569.0000000        2489.1218262        79.878173828    
 410-56-10       2565.0000000        2487.7358398        77.264160156    
 410-61-60       2542.0000000        2472.4931641        69.506835938    
 410-66-49       2542.0000000        2446.9191895        95.080810547    
 410-71-33       2532.0000000        2426.5451660        105.45483398    
 376-31-348      2628.0000000        2619.7167969        8.2832031250    
 376-37-19       2619.0000000        2599.8315430        19.168457031    
 376-43-47       2613.0000000        2578.0798340        34.920166016    
 376-48-343      2612.0000000        2565.2307129        46.769287109    
 376-56-11       2610.0000000        2559.1105957        50.889404297    
 376-60-321      2601.0000000        2553.6101074        47.389892578    
 376-65-298      2592.0000000        2544.8166504        47.183349609    
 414-71-365      2596.0000000        2547.3325195        48.667480469    
 416-34-357      2620.0000000        2623.7080078       -3.7080078125    
 366-17-55       2706.0000000        2693.7216797        12.278320312    
 366-22-33       2684.0000000        2681.6530762        2.3469238281    
 366-27-10       2661.0000000        2670.1250000       -9.1250000000    
 366-33-10       2665.0000000        2657.7910156        7.2089843750    
 370-17-55       2688.0000000        2681.3244629        6.6755371094    
 370-22-46       2656.0000000        2659.9838867       -3.9838867188    
 370-31-335      2635.0000000        2629.4318848        5.5681152344    
 370-37-91       2621.0000000        2604.4318848        16.568115234    
 394-27-10       2646.0000000        2628.4782715        17.521728516    
 389-42-355      2540.0000000        2513.1984863        26.801513672    
 389-48-334      2565.0000000        2481.9584961        83.041503906    
 389-56-10       2558.0000000        2480.7236328        77.276367188    
 389-61-60       2538.0000000        2465.8027344        72.197265625    
 389-66-48       2533.0000000        2435.8110352        97.188964844    
 389-71-33       2536.0000000        2427.9851074        108.01489258    
 382-48-334      2611.0000000        2563.3562012        47.643798828    
 395-17-4        2679.0000000        2671.2153320        7.7846679688    
 395-27-13       2665.0000000        2627.9716797        37.028320312    
 395-38-6        2584.0000000        2551.2915039        32.708496094    
 395-42-356      2555.0000000        2545.5529785        9.4470214844    
 395-48-334      2577.0000000        2554.8083496        22.191650391    
 395-56-11       2573.0000000        2554.5061035        18.493896484    
 395-61-60       2524.0000000        2534.5893555       -10.589355469    
 395-66-54       2507.0000000        2495.8618164        11.138183594    
 395-71-33       2530.0000000        2455.2875977        74.712402344    
 379-42-356      2562.0000000        2568.2431641       -6.2431640625    
 379-48-334      2586.0000000        2570.4167480        15.583251953    
 379-56-11       2583.0000000        2569.4819336        13.518066406    
 385-7-49        2700.0000000        2698.0383301        1.9616699219    
 384-7-49        2698.0000000        2698.3725586      -0.37255859375    
 374-1-358       2693.0000000        2712.8620605       -19.862060547    
 362-38-6        2600.0000000        2462.5283203        137.47167969    
 362-42-355      2577.0000000        2506.5454102        70.454589844    
 362-48-334      2593.0000000        2552.4458008        40.554199219    
 362-56-10       2592.0000000        2549.9645996        42.035400391    
 362-61-60       2572.0000000        2529.2883301        42.711669922    
 362-66-48       2562.0000000        2505.2724609        56.727539062    
 362-71-33       2575.0000000        2479.8544922        95.145507812    
 360-26-313      2647.0000000        2647.1857910      -0.18579101562    
 360-38-6        2600.0000000        2562.9072266        37.092773438    
 371-38-6        2598.0000000        2565.8859863        32.114013672    
 371-42-355      2579.0000000        2568.0017090        10.998291016    
 355-48-342      2616.0000000        2602.3120117        13.687988281    
 355-56-13       2614.0000000        2602.0754395        11.924560547    
 355-61-61       2600.0000000        2584.7937012        15.206298828    
 355-66-32       2588.0000000        2564.4130859        23.586914062    
 353-1-365       2705.0000000        2727.0446777       -22.044677734    
 353-8-22        2704.0000000        2718.3796387       -14.379638672    
 353-11-304      2703.0000000        2713.5585938       -10.558593750    
 353-61-61       2610.0000000        2591.9174805        18.082519531    
 353-66-32       2603.0000000        2573.2712402        29.728759766    
 501-27-60       2646.0000000        2695.8781738       -49.878173828    
 501-37-32       2639.0000000        2694.1223145       -55.122314453    
 501-43-53       2640.0000000        2692.1823730       -52.182373047    
 501-48-336      2640.0000000        2689.4665527       -49.466552734    
 501-56-17       2639.0000000        2685.3312988       -46.331298828    
 501-60-320      2639.0000000        2682.3571777       -43.357177734    
 501-65-299      2639.0000000        2678.9111328       -39.911132812    
 501-71-365      2638.0000000        2673.3625488       -35.362548828    
 536-61-52       2579.0000000        2579.1982422      -0.19824218750    
 536-66-18       2575.0000000        2572.8261719        2.1738281250    
 536-71-62       2575.0000000        2568.6345215        6.3654785156    
 540-43-50       2603.0000000        2608.4023438       -5.4023437500    
 540-56-17       2588.0000000        2586.8896484        1.1103515625    
 451-37-32       2707.0000000        2743.9018555       -36.901855469    
 451-43-53       2715.0000000        2742.7475586       -27.747558594    
 451-48-336      2727.0000000        2741.1550293       -14.155029297    
 451-56-17       2744.0000000        2738.4099121        5.5900878906    
 451-61-52       2743.0000000        2736.0517578        6.9482421875    
 451-71-336      2764.0000000        2729.9433594        34.056640625    
 419-71-61       2695.0000000        2660.9636230        34.036376953    
 425-71-61       2749.0000000        2732.0722656        16.927734375    
 397-48-336      2815.0000000        2764.2421875        50.757812500    
 378-71-61       2711.0000000        2712.5363770       -1.5363769531    
 477-7-99        2664.0000000        2659.6918945        4.3081054688    
 477-11-60       2664.0000000        2658.9675293        5.0324707031    
 477-17-53       2663.0000000        2657.2060547        5.7939453125    
 477-22-39       2662.0000000        2654.8303223        7.1696777344    
 477-32-6        2659.0000000        2646.5639648        12.436035156    
 477-37-32       2648.0000000        2640.5019531        7.4980468750    
 478-48-335      2652.0000000        2620.9721680        31.027832031    
 478-56-17       2645.0000000        2610.9177246        34.082275391    
 218-42-337      3145.0000000        2996.1257324        148.87426758    
 337-37-343      2555.0000000        2600.2346191       -45.234619141    
 337-43-14       2542.0000000        2612.4689941       -70.468994141    
 337-56-12       2564.0000000        2628.8183594       -64.818359375    
 337-61-61       2546.0000000        2612.1931152       -66.193115234    
 337-66-31       2536.0000000        2595.5651855       -59.565185547    
 328-56-11       2652.0000000        2646.3461914        5.6538085938    
 328-61-61       2636.0000000        2630.0292969        5.9707031250    
 328-66-32       2627.0000000        2614.3657227        12.634277344    
 329-1-365       2746.0000000        2758.0585938       -12.058593750    
 327-1-365       2754.0000000        2759.2316895       -5.2316894531    
 326-26-319      2678.0000000        2686.5751953       -8.5751953125    
 326-31-335      2666.0000000        2675.6906738       -9.6906738281    
 326-38-32       2654.0000000        2646.5581055        7.4418945312    
 326-56-11       2626.0000000        2646.1157227       -20.115722656    
 326-61-54       2609.0000000        2630.6511230       -21.651123047    
 326-66-32       2598.0000000        2615.8000488       -17.800048828    
 321-43-14       2563.0000000        2652.1223145       -89.122314453    
 321-56-12       2596.0000000        2647.0134277       -51.013427734    
 322-1-358       2756.0000000        2763.0319824       -7.0319824219    
 322-6-340       2750.0000000        2751.2104492       -1.2104492188    
 322-11-333      2738.0000000        2740.7297363       -2.7297363281    
 322-16-301      2717.0000000        2729.0195312       -12.019531250    
 322-22-46       2703.0000000        2708.4279785       -5.4279785156    
 322-27-32       2691.0000000        2690.9404297       5.95703125000E-02
 308-34-333      2660.0000000        2685.5800781       -25.580078125    
 316-7-283       2748.0000000        2752.3955078       -4.3955078125    
 316-11-333      2738.0000000        2742.5102539       -4.5102539062    
 316-16-301      2734.0000000        2730.7170410        3.2829589844    
 316-22-46       2699.0000000        2710.6105957       -11.610595703    
 316-27-11       2692.0000000        2693.4248047       -1.4248046875    
 316-31-335      2674.0000000        2685.8745117       -11.874511719    
 316-38-32       2663.0000000        2664.5317383       -1.5317382812    
 316-48-337      2639.0000000        2663.4760742       -24.476074219    
 316-56-11       2632.0000000        2657.0964355       -25.096435547    
 316-60-321      2616.0000000        2641.2153320       -25.215332031    
 316-65-300      2582.0000000        2628.4536133       -46.453613281    
 310-1-365       2757.0000000        2766.3041992       -9.3041992188    
 310-27-49       2692.0000000        2696.0048828       -4.0048828125    
 310-56-11       2649.0000000        2658.8635254       -9.8635253906    
 310-61-54       2633.0000000        2643.1311035       -10.131103516    
 310-66-32       2621.0000000        2629.3659668       -8.3659667969    
 324-1-365       2740.0000000        2758.3276367       -18.327636719    
 307-56-11       2680.0000000        2659.5090332        20.490966797    
 335-1-365       2755.0000000        2754.7849121       0.21508789062    
 333-56-9        2601.0000000        2640.2004395       -39.200439453    
 323-56-11       2640.0000000        2650.9436035       -10.943603516    
 323-61-61       2610.0000000        2635.0986328       -25.098632812    
 311-17-5        2717.0000000        2732.6853027       -15.685302734    
 311-27-14       2682.0000000        2693.2749023       -11.274902344    
 314-56-25       2590.0000000        2651.0585938       -61.058593750    
 314-61-62       2580.0000000        2636.2473145       -56.247314453    
 318-48-343      2595.0000000        2671.7646484       -76.764648438    
 302-42-348      2592.0000000        2667.1589355       -75.158935547    
 301-22-62       2697.0000000        2710.3229980       -13.322998047    
 301-27-6        2674.0000000        2687.7768555       -13.776855469    
 301-38-32       2639.0000000        2680.5805664       -41.580566406    
 295-22-62       2740.0000000        2718.2431641        21.756835938    
 295-38-5        2669.0000000        2689.9946289       -20.994628906    
 295-56-24       2659.0000000        2671.5263672       -12.526367188    
 295-66-32       2645.0000000        2651.2827148       -6.2827148438    
 281-38-5        2639.0000000        2691.0749512       -52.074951172    
 281-42-348      2619.0000000        2691.7351074       -72.735107422    
 270-22-62       2711.0000000        2740.1547852       -29.154785156    
 270-38-32       2656.0000000        2711.7624512       -55.762451172    
 271-38-5        2645.0000000        2699.4003906       -54.400390625    
 271-42-348      2625.0000000        2697.5205078       -72.520507812    
 271-48-337      2650.0000000        2706.1672363       -56.167236328    
 271-56-10       2638.0000000        2687.8310547       -49.831054688    
 271-61-61       2623.0000000        2671.4443359       -48.444335938    
 271-66-61       2620.0000000        2664.9592285       -44.959228516    
 290-56-25       2624.0000000        2666.4692383       -42.469238281    
 290-61-62       2610.0000000        2651.9394531       -41.939453125    
 280-17-4        2729.0000000        2753.7700195       -24.770019531    
 280-27-14       2698.0000000        2711.3483887       -13.348388672    
 278-7-274       2772.0000000        2772.3132324      -0.31323242188    
 274-7-274       2767.0000000        2769.5822754       -2.5822753906    
 274-38-7        2670.0000000        2688.3781738       -18.378173828    
 274-42-355      2647.0000000        2677.5676270       -30.567626953    
 274-48-335      2671.0000000        2685.6052246       -14.605224609    
 274-56-11       2668.0000000        2676.2666016       -8.2666015625    
 279-17-5        2745.0000000        2745.0151367      -1.51367187500E-02
 279-42-355      2665.0000000        2675.4035645       -10.403564453    
 282-42-355      2655.0000000        2678.6186523       -23.618652344    
 282-48-335      2666.0000000        2679.7380371       -13.738037109    
 282-56-11       2674.0000000        2671.5830078        2.4169921875    
 282-61-60       2656.0000000        2658.4758301       -2.4758300781    
 282-66-48       2645.0000000        2645.5549316      -0.55493164062    
 265-42-355      2668.0000000        2692.8156738       -24.815673828    
 265-48-335      2690.0000000        2697.0778809       -7.0778808594    
 265-56-11       2688.0000000        2687.2604980       0.73950195312    
 265-61-60       2671.0000000        2673.6982422       -2.6982421875    
 265-66-48       2660.0000000        2664.2485352       -4.2485351562    
 265-71-34       2645.0000000        2658.7409668       -13.740966797    
 264-38-7        2690.0000000        2694.6354980       -4.6354980469    
 264-42-355      2677.0000000        2683.0170898       -6.0170898438    
 264-48-335      2699.0000000        2693.3354492        5.6645507812    
 264-56-11       2697.0000000        2683.1374512        13.862548828    
 264-61-60       2681.0000000        2668.3583984        12.641601562    
 264-66-48       2672.0000000        2659.0148926        12.985107422    
 264-71-34       2654.0000000        2654.5075684      -0.50756835938    
 268-1-365       2783.0000000        2789.2399902       -6.2399902344    
 268-38-7        2681.0000000        2695.6687012       -14.668701172    
 268-43-47       2665.0000000        2683.7019043       -18.701904297    
 268-48-335      2686.0000000        2694.9221191       -8.9221191406    
 250-7-274       2785.0000000        2787.8752441       -2.8752441406    
 250-17-5        2760.0000000        2764.7570801       -4.7570800781    
 250-38-7        2695.0000000        2711.4992676       -16.499267578    
 250-42-355      2675.0000000        2699.8469238       -24.846923828    
 250-56-11       2696.0000000        2691.7004395        4.2995605469    
 250-61-60       2679.0000000        2676.4335938        2.5664062500    
 250-66-48       2666.0000000        2666.1254883      -0.12548828125    
 250-71-34       2638.0000000        2658.5686035       -20.568603516    
 252-48-335      2702.0000000        2705.6450195       -3.6450195312    
 256-42-355      2668.0000000        2692.3010254       -24.301025391    
 256-48-335      2696.0000000        2699.7880859       -3.7880859375    
 256-56-11       2694.0000000        2687.6027832        6.3972167969    
 256-61-60       2678.0000000        2672.3491211        5.6508789062    
 256-66-48       2664.0000000        2661.8317871        2.1682128906    
 256-71-34       2646.0000000        2654.4477539       -8.4477539062    
 261-17-5        2756.0000000        2764.6738281       -8.6738281250    
 261-17-64       2755.0000000        2763.9001465       -8.9001464844    
 261-22-41       2740.0000000        2742.5646973       -2.5646972656    
 262-48-338      2688.0000000        2700.3764648       -12.376464844    
 262-56-9        2670.0000000        2685.9965820       -15.996582031    
 262-61-62       2657.0000000        2669.9248047       -12.924804688    
 247-1-365       2801.0000000        2805.7456055       -4.7456054688    
 247-7-291       2788.0000000        2795.9697266       -7.9697265625    
 247-27-11       2742.0000000        2742.4230957      -0.42309570312    
 266-36-1        2669.0000000        2721.3955078       -52.395507812    
 260-48-338      2665.0000000        2720.5109863       -55.510986328    
 259-56-9        2660.0000000        2704.1457520       -44.145751953    
 259-61-62       2645.0000000        2683.3227539       -38.322753906    
 259-66-47       2639.0000000        2679.5891113       -40.589111328    
 259-71-35       2623.0000000        2673.1787109       -50.178710938    
 269-38-4        2752.0000000        2793.5744629       -41.574462891    
 269-42-337      2753.0000000        2777.2109375       -24.210937500    
 269-48-337      2751.0000000        2760.9289551       -9.9289550781    
 269-56-10       2789.0000000        2749.3356934        39.664306641    
 269-61-61       2739.0000000        2718.1364746        20.863525391    
 269-66-61       2740.0000000        2714.0590820        25.940917969    
 257-56-10       2794.0000000        2757.4379883        36.562011719    
 257-61-61       2727.0000000        2723.6594238        3.3405761719    
 257-66-61       2727.0000000        2719.3483887        7.6516113281    
 254-38-4        2773.0000000        2814.8723145       -41.872314453    
 254-42-337      2764.0000000        2794.7568359       -30.756835938    
 253-48-337      2672.0000000        2738.1276855       -66.127685547    
 253-56-10       2666.0000000        2725.2409668       -59.240966797    
 253-61-61       2650.0000000        2703.2570801       -53.257080078    
 253-66-61       2644.0000000        2697.6665039       -53.666503906    
 248-38-5        3160.0000000        3114.7097168        45.290283203    
 248-42-337      3166.0000000        3122.8801270        43.119873047    
 248-48-337      3163.0000000        3056.7131348        106.28686523    
 241-48-337      2702.0000000        2747.9421387       -45.942138672    
 241-56-10       2707.0000000        2737.2312012       -30.231201172    
 241-61-61       2686.0000000        2716.0666504       -30.066650391    
 241-66-61       2675.0000000        2709.0898438       -34.089843750    
 229-48-337      2738.0000000        2755.6689453       -17.668945312    
 229-56-11       2746.0000000        2746.1684570      -0.16845703125    
 242-38-4        2809.0000000        2831.2463379       -22.246337891    
 242-42-337      2781.0000000        2804.2834473       -23.283447266    
 243-56-10       2838.0000000        2782.8698730        55.130126953    
 238-56-10       2830.0000000        2781.6652832        48.334716797    
 235-56-10       2846.0000000        2785.6743164        60.325683594    
 228-38-5        2831.0000000        2844.7763672       -13.776367188    
 228-42-348      2788.0000000        2810.7580566       -22.758056641    
 228-48-337      2776.0000000        2775.0895996       0.91040039062    
 230-48-337      2783.0000000        2779.5891113        3.4108886719    
 230-56-10       2815.0000000        2784.1892090        30.810791016    
 232-31-335      2744.0000000        2769.7473145       -25.747314453    
 232-37-361      2729.0000000        2760.1870117       -31.187011719    
 232-48-337      2731.0000000        2743.6147461       -12.614746094    
 232-56-9        2734.0000000        2731.9592285        2.0407714844    
 232-61-62       2717.0000000        2714.7407227        2.2592773438    
 232-66-47       2700.0000000        2706.1093750       -6.1093750000    
 232-71-35       2670.0000000        2696.1867676       -26.186767578    
 237-17-5        2766.0000000        2786.8293457       -20.829345703    
 237-27-11       2752.0000000        2757.5520020       -5.5520019531    
 237-37-357      2710.0000000        2739.9665527       -29.966552734    
 237-42-355      2690.0000000        2724.9182129       -34.918212891    
 237-48-335      2716.0000000        2729.5917969       -13.591796875    
 237-56-11       2716.0000000        2716.8881836      -0.88818359375    
 237-61-60       2699.0000000        2702.1347656       -3.1347656250    
 237-66-48       2684.0000000        2692.0944824       -8.0944824219    
 237-71-34       2664.0000000        2683.0847168       -19.084716797    
 239-1-365       2805.0000000        2808.5249023       -3.5249023438    
 239-42-355      2688.0000000        2711.0214844       -23.021484375    
 240-22-1        2744.0000000        2758.5427246       -14.542724609    
 240-38-7        2714.0000000        2727.8684082       -13.868408203    
 240-48-335      2719.0000000        2722.1394043       -3.1394042969    
 240-56-10       2718.0000000        2709.4526367        8.5473632812    
 240-66-48       2686.0000000        2684.5744629        1.4255371094    
 240-71-34       2661.0000000        2675.8220215       -14.822021484    
 231-48-335      2732.0000000        2730.8505859        1.1494140625    
 231-56-10       2732.0000000        2717.8269043        14.173095703    
 233-17-5        2781.0000000        2783.4604492       -2.4604492188    
 233-38-7        2712.0000000        2732.0903320       -20.090332031    
 233-42-355      2695.0000000        2717.9748535       -22.974853516    
 234-42-355      2694.0000000        2723.4514160       -29.451416016    
 234-48-335      2714.0000000        2729.9226074       -15.922607422    
 234-56-10       2718.0000000        2716.9831543        1.0168457031    
 234-60-322      2701.0000000        2703.7624512       -2.7624511719    
 234-66-48       2688.0000000        2693.2082520       -5.2082519531    
 234-71-34       2667.0000000        2684.2883301       -17.288330078    
 213-1-310       2835.0000000        2833.0114746        1.9885253906    
 213-6-310       2829.0000000        2824.8002930        4.1997070312    
 213-27-11       2792.0000000        2785.9902344        6.0097656250    
 213-42-355      2739.0000000        2751.2800293       -12.280029297    
 216-7-291       2818.0000000        2821.6582031       -3.6582031250    
 216-22-32       2787.0000000        2788.8801270       -1.8801269531    
 216-27-11       2793.0000000        2784.1704102        8.8295898438    
 216-38-7        2738.0000000        2760.9475098       -22.947509766    
 216-42-355      2732.0000000        2748.2573242       -16.257324219    
 210-1-365       2843.0000000        2838.1027832        4.8972167969    
 210-38-7        2742.0000000        2767.6826172       -25.682617188    
 210-42-355      2745.0000000        2754.8574219       -9.8574218750    
 210-48-335      2770.0000000        2764.1408691        5.8591308594    
 210-56-11       2775.0000000        2753.2810059        21.718994141    
 189-17-6        2827.0000000        2832.8571777       -5.8571777344    
 189-22-54       2812.0000000        2818.8166504       -6.8166503906    
 189-27-11       2814.0000000        2817.2636719       -3.2636718750    
 189-38-7        2772.0000000        2783.5578613       -11.557861328    
 189-42-355      2762.0000000        2770.7692871       -8.7692871094    
 189-48-335      2793.0000000        2784.7033691        8.2966308594    
 189-56-9        2797.0000000        2773.6567383        23.343261719    
 189-61-60       2779.0000000        2761.5781250        17.421875000    
 189-66-48       2761.0000000        2750.5900879        10.409912109    
 189-71-34       2738.0000000        2741.6608887       -3.6608886719    
 200-38-7        2760.0000000        2771.3295898       -11.329589844    
 200-42-356      2747.0000000        2757.0749512       -10.074951172    
 200-48-335      2776.0000000        2762.6484375        13.351562500    
 200-56-9        2778.0000000        2752.3652344        25.634765625    
 200-61-60       2756.0000000        2738.4013672        17.598632812    
 200-66-48       2745.0000000        2728.4064941        16.593505859    
 201-38-7        2774.0000000        2778.5612793       -4.5612792969    
 201-42-356      2759.0000000        2760.1372070       -1.1372070312    
 201-48-335      2782.0000000        2762.1123047        19.887695312    
 201-56-11       2786.0000000        2753.0297852        32.970214844    
 201-61-60       2769.0000000        2735.9484863        33.051513672    
 201-66-48       2753.0000000        2725.6174316        27.382568359    
 201-71-34       2730.0000000        2717.1933594        12.806640625    
 199-17-5        2814.0000000        2821.2792969       -7.2792968750    
 199-22-54       2800.0000000        2807.5712891       -7.5712890625    
 199-27-11       2801.0000000        2802.9355469       -1.9355468750    
 199-38-7        2764.0000000        2782.9633789       -18.963378906    
 199-42-356      2749.0000000        2762.7783203       -13.778320312    
 199-48-335      2776.0000000        2762.4316406        13.568359375    
 217-38-5        2864.0000000        2855.8254395        8.1745605469    
 217-42-348      2813.0000000        2799.7617188        13.238281250    
 220-38-5        2851.0000000        2854.7055664       -3.7055664062    
 220-42-348      2800.0000000        2807.4064941       -7.4064941406    
 220-56-10       2804.0000000        2768.9094238        35.090576172    
 220-61-61       2795.0000000        2763.4589844        31.541015625    
 220-66-61       2776.0000000        2749.5283203        26.471679688    
 204-38-5        2852.0000000        2874.8144531       -22.814453125    
 204-42-348      2799.0000000        2814.9504395       -15.950439453    
 202-38-5        2854.0000000        2858.6450195       -4.6450195312    
 202-42-348      2802.0000000        2801.7565918       0.24340820312    
 198-39-190      2868.0000000        2853.7431641        14.256835938    
 194-39-138      2833.0000000        2845.6962891       -12.696289062    
 190-56-10       2810.0000000        2796.6269531        13.373046875    
 190-61-61       2802.0000000        2787.1994629        14.800537109    
 192-38-5        2853.0000000        2890.1918945       -37.191894531    
 192-42-337      2813.0000000        2845.8022461       -32.802246094    
 191-39-212      2856.0000000        2891.0666504       -35.066650391    
 193-38-5        2848.0000000        2873.3535156       -25.353515625    
 193-42-348      2815.0000000        2823.4372559       -8.4372558594    
 188-56-10       2883.0000000        2880.6030273        2.3969726562    
 188-61-61       2874.0000000        2869.0080566        4.9919433594    
 188-66-61       2864.0000000        2861.7158203        2.2841796875    
 187-56-10       2840.0000000        2850.9020996       -10.902099609    
 187-61-61       2840.0000000        2835.6791992        4.3208007812    
 187-66-62       2815.0000000        2828.5429688       -13.542968750    
 179-48-337      2866.0000000        2846.0524902        19.947509766    
 14-1-365        2884.0000000        2891.8937988       -7.8937988281    
 185-1-365       2853.0000000        2869.7104492       -16.710449219    
 185-10-60       2822.0000000        2858.7534180       -36.753417969    
 185-38-7        2754.0000000        2792.9726562       -38.972656250    
 185-42-355      2750.0000000        2777.8706055       -27.870605469    
 181-38-7        2780.0000000        2799.8330078       -19.833007812    
 181-48-335      2809.0000000        2797.4125977        11.587402344    
 181-56-11       2813.0000000        2788.2719727        24.728027344    
 181-61-60       2798.0000000        2781.0517578        16.948242188    
 181-66-48       2777.0000000        2773.4472656        3.5527343750    
 181-71-34       2755.0000000        2763.0939941       -8.0939941406    
 186-48-335      2805.0000000        2789.7863770        15.213623047    
 183-48-335      2811.0000000        2799.9177246        11.082275391    
 182-42-355      2777.0000000        2776.2778320       0.72216796875    
 182-48-335      2810.0000000        2793.8603516        16.139648438    
 182-56-9        2809.0000000        2782.7548828        26.245117188    
 182-61-60       2795.0000000        2772.6772461        22.322753906    
 182-66-48       2776.0000000        2762.3884277        13.611572266    
 182-71-34       2755.0000000        2753.1311035        1.8688964844    
 180-48-335      2822.0000000        2802.8688965        19.131103516    
 184-12-80       2841.0000000        2844.4816895       -3.4816894531    
 184-17-60       2837.0000000        2838.7233887       -1.7233886719    
 184-22-62       2827.0000000        2826.8049316       0.19506835938    
 184-27-6        2812.0000000        2824.3913574       -12.391357422    
 184-31-335      2811.0000000        2822.1684570       -11.168457031    
 184-37-32       2792.0000000        2800.3918457       -8.3918457031    
 184-42-299      2779.0000000        2783.0720215       -4.0720214844    
 184-48-337      2809.0000000        2792.2517090        16.748291016    
 184-56-12       2811.0000000        2782.3662109        28.633789062    
 184-66-55       2790.0000000        2764.2897949        25.710205078    
 305-56-11       2722.0000000        2659.7124023        62.287597656    
 305-61-61       2678.0000000        2645.1953125        32.804687500    
 305-66-32       2682.0000000        2633.7065430        48.293457031    
 325-37-344      2646.0000000        2639.7736816        6.2263183594    
 325-43-14       2634.0000000        2642.1157227       -8.1157226562    
 325-48-342      2649.0000000        2649.5556641      -0.55566406250    
 325-56-12       2656.0000000        2644.3232422        11.676757812    
 325-61-61       2621.0000000        2630.3369141       -9.3369140625    
 325-66-31       2611.0000000        2615.8999023       -4.8999023438    
 292-61-61       2675.0000000        2696.1894531       -21.189453125    
 296-26-321      2728.0000000        2736.0151367       -8.0151367188    
 296-31-335      2715.0000000        2727.1232910       -12.123291016    
 296-37-344      2709.0000000        2721.7209473       -12.720947266    
 296-43-14       2705.0000000        2715.9802246       -10.980224609    
 296-48-342      2701.0000000        2708.5339355       -7.5339355469    
 296-56-11       2697.0000000        2704.5461426       -7.5461425781    
 296-60-321      2692.0000000        2699.9257812       -7.9257812500    
 296-65-300      2686.0000000        2693.8417969       -7.8417968750    
 297-17-4        2731.0000000        2742.0966797       -11.096679688    
 297-22-54       2722.0000000        2728.5817871       -6.5817871094    
 297-27-11       2713.0000000        2715.9553223       -2.9553222656    
 297-56-12       2681.0000000        2684.1767578       -3.1767578125    
 297-61-61       2671.0000000        2677.2314453       -6.2314453125    
 297-66-32       2665.0000000        2667.9372559       -2.9372558594    
 272-33-177      2743.0000000        2741.3066406        1.6933593750    
 245-48-342      2722.0000000        2731.3249512       -9.3249511719    
 245-56-12       2719.0000000        2725.5505371       -6.5505371094    
 221-33-346      2759.0000000        2770.5878906       -11.587890625    
 222-48-343      2744.0000000        2749.1464844       -5.1464843750    
 222-56-9        2758.0000000        2741.0847168        16.915283203    
 222-61-60       2739.0000000        2730.7299805        8.2700195312    
 222-66-54       2735.0000000        2722.8576660        12.142333984    
 222-71-34       2721.0000000        2714.5002441        6.4997558594    
 223-48-343      2746.0000000        2747.9677734       -1.9677734375    
 223-56-9        2750.0000000        2739.8620605        10.137939453    
 223-61-60       2738.0000000        2729.4482422        8.5517578125    
 223-71-35       2720.0000000        2713.1875000        6.8125000000    
 219-71-365      2723.0000000        2723.1987305      -0.19873046875    
 102-43-8        2972.0000000        2996.7937012       -24.793701172    
 102-48-344      2995.0000000        3008.5305176       -13.530517578    
 92-71-40        2989.0000000        2999.7500000       -10.750000000    
 177-17-6        2858.0000000        2867.1437988       -9.1437988281    
 177-38-7        2790.0000000        2800.2451172       -10.245117188    
 177-42-355      2803.0000000        2789.2624512        13.737548828    
 177-48-335      2861.0000000        2812.9726562        48.027343750    
 169-38-4        2773.0000000        2811.2426758       -38.242675781    
 169-42-334      2779.0000000        2797.7512207       -18.751220703    
 169-56-11       2818.0000000        2809.2416992        8.7583007812    
 168-1-365       2887.0000000        2890.0727539       -3.0727539062    
 170-38-7        2782.0000000        2816.4907227       -34.490722656    
 170-42-355      2793.0000000        2799.5727539       -6.5727539062    
 170-48-335      2831.0000000        2819.5695801        11.430419922    
 170-56-9        2827.0000000        2809.2541504        17.745849609    
 170-61-60       2821.0000000        2805.1352539        15.864746094    
 170-66-48       2798.0000000        2793.6779785        4.3220214844    
 170-71-34       2780.0000000        2782.7993164       -2.7993164062    
 176-1-280       2880.0000000        2889.7705078       -9.7705078125    
 176-6-340       2875.0000000        2885.5437012       -10.543701172    
 176-11-333      2858.0000000        2879.2937012       -21.293701172    
 176-16-332      2862.0000000        2874.5361328       -12.536132812    
 176-38-7        2791.0000000        2814.7875977       -23.787597656    
 172-12-80       2883.0000000        2903.9267578       -20.926757812    
 172-17-60       2875.0000000        2897.2202148       -22.220214844    
 172-22-62       2868.0000000        2890.1584473       -22.158447266    
 172-27-6        2860.0000000        2887.0480957       -27.048095703    
 172-31-344      2859.0000000        2886.5815430       -27.581542969    
 172-36-335      2848.0000000        2870.5805664       -22.580566406    
 172-48-335      2848.0000000        2854.4423828       -6.4423828125    
 172-56-11       2853.0000000        2847.4704590        5.5295410156    
 172-61-59       2852.0000000        2845.0595703        6.9404296875    
 171-43-47       2829.0000000        2848.4753418       -19.475341797    
 171-48-335      2851.0000000        2854.4423828       -3.4423828125    
 171-56-11       2853.0000000        2847.4704590        5.5295410156    
 171-60-322      2853.0000000        2845.7407227        7.2592773438    
 171-65-298      2837.0000000        2839.8674316       -2.8674316406    
 171-71-13       2807.0000000        2812.1613770       -5.1613769531    
 164-33-152      2848.0000000        2892.3898926       -44.389892578    
 167-48-335      2864.0000000        2862.8364258        1.1635742188    
 167-56-11       2866.0000000        2857.1777344        8.8222656250    
 166-61-56       2871.0000000        2851.3022461        19.697753906    
 166-66-53       2858.0000000        2844.8522949        13.147705078    
 166-71-35       2829.0000000        2826.2824707        2.7175292969    
 178-48-336      2871.0000000        2877.5891113       -6.5891113281    
 178-56-11       2816.0000000        2873.5559082       -57.555908203    
 174-48-336      2870.0000000        2877.1638184       -7.1638183594    
 161-48-336      2887.0000000        2894.2683105       -7.2683105469    
 161-56-11       2895.0000000        2891.6687012        3.3312988281    
 161-61-56       2887.0000000        2887.4072266      -0.40722656250    
 161-66-54       2878.0000000        2882.1972656       -4.1972656250    
 161-71-41       2860.0000000        2870.1723633       -10.172363281    
 153-48-335      2915.0000000        2898.8791504        16.120849609    
 163-48-336      2902.0000000        2880.7006836        21.299316406    
 163-56-11       2903.0000000        2877.3352051        25.664794922    
 163-61-59       2896.0000000        2872.3298340        23.670166016    
 163-66-54       2886.0000000        2866.4909668        19.509033203    
 163-71-41       2865.0000000        2853.0380859        11.961914062    
 156-48-336      2913.0000000        2890.2849121        22.715087891    
 156-56-11       2916.0000000        2887.9741211        28.025878906    
 157-1-358       2927.0000000        2918.1977539        8.8022460938    
 157-22-54       2887.0000000        2900.2451172       -13.245117188    
 157-27-11       2885.0000000        2899.4284668       -14.428466797    
 157-31-348      2874.0000000        2892.8635254       -18.863525391    
 157-37-22       2831.0000000        2858.6901855       -27.690185547    
 157-43-47       2842.0000000        2845.3859863       -3.3859863281    
 157-48-335      2888.0000000        2868.7285156        19.271484375    
 157-56-9        2903.0000000        2862.7841797        40.215820312    
 157-60-322      2872.0000000        2857.2587891        14.741210938    
 157-65-298      2859.0000000        2849.2800293        9.7199707031    
 157-71-365      2824.0000000        2833.4470215       -9.4470214844    
 154-42-341      2833.0000000        2848.0261230       -15.026123047    
 159-38-4        2783.0000000        2837.4892578       -54.489257812    
 159-56-11       2840.0000000        2843.9238281       -3.9238281250    
 147-38-4        2820.0000000        2862.3095703       -42.309570312    
 147-42-334      2820.0000000        2859.7976074       -39.797607422    
 147-56-11       2889.0000000        2880.6906738        8.3093261719    
 149-1-280       2945.0000000        2933.1418457        11.858154297    
 150-48-335      2923.0000000        2895.3129883        27.687011719    
 150-56-9        2926.0000000        2894.6840820        31.315917969    
 137-48-335      2944.0000000        2915.1760254        28.823974609    
 137-56-9        2949.0000000        2914.9038086        34.096191406    
 137-61-56       2937.0000000        2903.2199707        33.780029297    
 137-66-53       2922.0000000        2897.5463867        24.453613281    
 136-38-4        2860.0000000        2880.3989258       -20.398925781    
 136-42-341      2880.0000000        2886.7087402       -6.7087402344    
 136-56-11       2894.0000000        2902.4655762       -8.4655761719    
 152-48-336      2949.0000000        2900.4279785        48.572021484    
 129-17-5        2953.0000000        2957.0417480       -4.0417480469    
 129-27-11       2944.0000000        2954.8239746       -10.823974609    
 123-42-348      2909.0000000        2926.5683594       -17.568359375    
 128-42-348      2921.0000000        2911.7260742        9.2739257812    
 128-56-11       2970.0000000        2935.2717285        34.728271484    
 133-12-362      2936.0000000        2939.4450684       -3.4450683594    
 133-17-61       2933.0000000        2939.0541992       -6.0541992188    
 133-27-6        2925.0000000        2934.0966797       -9.0966796875    
 133-31-335      2913.0000000        2928.5856934       -15.585693359    
 133-38-4        2866.0000000        2889.0505371       -23.050537109    
 133-42-341      2885.0000000        2887.1523438       -2.1523437500    
 133-48-335      2937.0000000        2910.8793945        26.120605469    
 133-56-9        2956.0000000        2910.2851562        45.714843750    
 133-71-365      2871.0000000        2882.1474609       -11.147460938    
 127-1-365       2959.0000000        2957.6005859        1.3994140625    
 127-17-1        2959.0000000        2953.2775879        5.7224121094    
 130-42-341      2915.0000000        2908.9436035        6.0563964844    
 130-48-335      2949.0000000        2925.8518066        23.148193359    
 130-56-9        2964.0000000        2924.4592285        39.540771484    
 126-27-11       2934.0000000        2951.4584961       -17.458496094    
 135-48-336      2897.0000000        2904.2309570       -7.2309570312    
 135-56-9        2902.0000000        2902.8176270      -0.81762695312    
 122-48-336      2920.0000000        2934.3994141       -14.399414062    
 120-12-310      2972.0000000        2978.9658203       -6.9658203125    
 120-17-5        2968.0000000        2978.5310059       -10.531005859    
 120-27-6        2963.0000000        2978.6347656       -15.634765625    
 120-31-335      2964.0000000        2976.1516113       -12.151611328    
 120-37-32       2931.0000000        2947.5478516       -16.547851562    
 120-42-341      2947.0000000        2953.5634766       -6.5634765625    
 120-48-336      2976.0000000        2974.9597168        1.0402832031    
 120-56-10       2983.0000000        2974.4685059        8.5314941406    
 120-61-59       2968.0000000        2966.0969238        1.9030761719    
 120-65-292      2963.0000000        2963.9909668      -0.99096679688    
 120-71-365      2938.0000000        2953.2307129       -15.230712891    
 118-38-4        2903.0000000        2950.2443848       -47.244384766    
 118-42-341      2933.0000000        2956.3442383       -23.344238281    
 118-48-349      2960.0000000        2963.4121094       -3.4121093750    
 118-56-10       2964.0000000        2953.2954102        10.704589844    
 107-27-69       2989.0000000        2990.1367188       -1.1367187500    
 114-48-336      2957.0000000        2976.0563965       -19.056396484    
 114-56-10       2966.0000000        2975.7338867       -9.7338867188    
 112-43-8        2956.0000000        2973.2800293       -17.280029297    
 112-48-335      2982.0000000        2990.4960938       -8.4960937500    
 112-56-9        2988.0000000        2993.5263672       -5.5263671875    
 112-61-52       2975.0000000        2984.9870605       -9.9870605469    
 112-66-45       2967.0000000        2980.7707520       -13.770751953    
 112-71-13       2956.0000000        2975.5280762       -19.528076172    
 104-60-299      2981.0000000        2999.0556641       -18.055664062    
 104-65-292      2974.0000000        2994.4902344       -20.490234375    
 100-22-61       2977.0000000        2993.5805664       -16.580566406    
 101-61-53       2981.0000000        3004.5397949       -23.539794922    
 97-22-54        2975.0000000        2997.1225586       -22.122558594    
 97-27-10        2963.0000000        3000.2673340       -37.267333984    
 98-43-8         2975.0000000        2994.1123047       -19.112304688    
 98-48-348       3003.0000000        3008.5883789       -5.5883789062    
 98-56-10        3007.0000000        3014.4682617       -7.4682617188    
 98-61-52        2997.0000000        3005.6193848       -8.6193847656    
 98-66-45        2989.0000000        2999.0322266       -10.032226562    
 105-43-69       2982.0000000        2977.9558105        4.0441894531    
 105-48-348      2993.0000000        2992.4326172       0.56738281250    
 105-56-10       3005.0000000        2995.1381836        9.8618164062    
 105-61-55       2989.0000000        2987.4565430        1.5434570312    
 105-66-45       2983.0000000        2983.2910156      -0.29101562500    
 99-5-1          2994.0000000        2997.1733398       -3.1733398438    
 106-56-10       2952.0000000        2974.3781738       -22.378173828    
 106-61-59       2947.0000000        2969.3784180       -22.378417969    
 106-66-45       2941.0000000        2967.8261719       -26.826171875    
 106-71-40       2928.0000000        2963.2873535       -35.287353516    
 95-71-40        2970.0000000        2995.0959473       -25.095947266    
 3393-25-338     1492.0000000        1543.7213135       -51.721313477    
 3312-25-338     1558.0000000        1577.4078369       -19.407836914    
 3288-25-341     1610.0000000        1603.6264648        6.3735351562    
 3282-25-341     1611.0000000        1624.0092773       -13.009277344    
 3259-25-341     1649.0000000        1668.0419922       -19.041992188    
 3222-25-229     1675.0000000        1703.8018799       -28.801879883    
 3213-25-337     1690.0000000        1695.8420410       -5.8420410156    
 3199-25-339     1687.0000000        1709.9279785       -22.927978516    
 3175-25-339     1683.0000000        1707.6356201       -24.635620117    
 3170-25-342     1701.0000000        1706.1794434       -5.1794433594    
 3200-25-336     1748.0000000        1770.2615967       -22.261596680    
 3154-25-336     1687.0000000        1728.6270752       -41.627075195    
 3138-25-336     1690.0000000        1737.1534424       -47.153442383    
 3046-25-344     1693.0000000        1738.3218994       -45.321899414    
 3036-25-344     1702.0000000        1739.7603760       -37.760375977    
 3038-25-339     1713.0000000        1768.5036621       -55.503662109    
 2684-25-3       1753.0000000        1773.4383545       -20.438354492    
 2919-25-351     1795.0000000        1833.9510498       -38.951049805    
 2719-25-113     2216.0000000        2186.4533691        29.546630859    
 1933-25-180     2246.0000000        2256.8442383       -10.844238281    
 1387-25-60      2343.0000000        2339.6215820        3.3784179688    
 1427-25-27      2341.0000000        2331.5639648        9.4360351562    
 1661-25-60      2359.0000000        2364.0561523       -5.0561523438    
 1390-25-365     2362.0000000        2345.3684082        16.631591797    
 1904-25-317     2511.0000000        2515.2873535       -4.2873535156    
 1379-25-91      2552.0000000        2575.2670898       -23.267089844    
 1796-25-321     2637.0000000        2623.9108887        13.089111328    
 1753-25-321     2623.0000000        2608.6682129        14.331787109    
 1705-25-328     2647.0000000        2654.0136719       -7.0136718750    
 1064-25-125     2385.0000000        2413.7646484       -28.764648438    
 831-25-335      2495.0000000        2498.5952148       -3.5952148438    
 1066-25-335     2783.0000000        2811.5266113       -28.526611328    
 723-25-363      2420.0000000        2391.2905273        28.709472656    
 568-25-307      2578.0000000        2567.8642578        10.135742188    
 544-25-309      2569.0000000        2578.0026855       -9.0026855469    
 780-25-329      2673.0000000        2545.6669922        127.33300781    
 526-25-307      2566.0000000        2581.4663086       -15.466308594    
 370-25-308      2652.0000000        2647.5070801        4.4929199219    
 265-25-7        2718.0000000        2731.3425293       -13.342529297    
 266-25-43       2692.0000000        2733.1137695       -41.113769531    
 232-25-314      2758.0000000        2774.5683594       -16.568359375    
 100-25-316      2977.0000000        2994.6545410       -17.654541016    
 3205-26-8       1660.0000000        1692.3381348       -32.338134766    
 3174-26-7       1673.0000000        1704.5372314       -31.537231445    
 3163-26-13      1681.0000000        1708.9674072       -27.967407227    
 3100-26-12      1686.0000000        1715.1970215       -29.197021484    
 3097-26-7       1674.0000000        1714.7727051       -40.772705078    
 3096-26-12      1693.0000000        1716.1390381       -23.139038086    
 3053-26-11      1688.0000000        1721.8609619       -33.860961914    
 3065-26-12      1701.0000000        1720.5811768       -19.581176758    
 3033-26-11      1699.0000000        1726.2104492       -27.210449219    
 2989-26-12      1709.0000000        1729.7320557       -20.732055664    
 3083-26-152     1700.0000000        1755.5279541       -55.527954102    
 3040-26-13      1692.0000000        1733.8363037       -41.836303711    
 2997-26-123     2239.0000000        2250.1276855       -11.127685547    
 3016-26-123     2282.0000000        2328.3078613       -46.307861328    
 2953-26-14      1718.0000000        1733.6003418       -15.600341797    
 2963-26-14      1715.0000000        1732.8854980       -17.885498047    
 2968-26-13      1779.0000000        1731.5653076        47.434692383    
 2906-26-13      1755.0000000        1742.7316895        12.268310547    
 2905-26-13      1726.0000000        1739.6561279       -13.656127930    
 2874-26-14      1767.0000000        1745.4689941        21.531005859    
 2780-26-13      1747.0000000        1756.9561768       -9.9561767578    
 2779-26-13      1763.0000000        1759.1687012        3.8312988281    
 2787-26-14      1788.0000000        1759.7672119        28.232788086    
 2790-26-14      1786.0000000        1763.2398682        22.760131836    
 2772-26-13      1750.0000000        1757.5018311       -7.5018310547    
 2639-26-13      1780.0000000        1776.4707031        3.5292968750    
 2974-26-15      1784.0000000        1818.3909912       -34.390991211    
 2937-26-14      1785.0000000        1810.4423828       -25.442382812    
 2885-26-14      1764.0000000        1766.7592773       -2.7592773438    
 2867-26-14      1706.0000000        1756.8637695       -50.863769531    
 2837-26-14      1710.0000000        1748.9703369       -38.970336914    
 2748-26-15      1763.0000000        1757.4748535        5.5251464844    
 2694-26-15      1833.0000000        1770.8443604        62.155639648    
 2933-26-15      1711.0000000        1739.0408936       -28.040893555    
 2851-26-14      1742.0000000        1741.9982910       1.70898437500E-03
 2711-26-15      1803.0000000        1768.7370605        34.262939453    
 2928-26-18      1795.0000000        1865.8956299       -70.895629883    
 2811-26-14      1815.0000000        1826.6791992       -11.679199219    
 2808-26-18      1802.0000000        1833.5893555       -31.589355469    
 2766-26-47      2059.0000000        2071.3857422       -12.385742188    
 2789-26-18      1813.0000000        1837.9423828       -24.942382812    
 2696-26-18      2033.0000000        2058.7163086       -25.716308594    
 2977-26-123     2364.0000000        2370.0537109       -6.0537109375    
 2914-26-120     2139.0000000        2121.4179688        17.582031250    
 2930-26-123     2338.0000000        2344.4897461       -6.4897460938    
 2898-26-120     2134.0000000        2115.2382812        18.761718750    
 2841-26-120     2191.0000000        2212.3515625       -21.351562500    
 2774-26-120     2200.0000000        2185.7739258        14.226074219    
 2762-26-26      2162.0000000        2168.3115234       -6.3115234375    
 2733-26-1       2092.0000000        2119.7114258       -27.711425781    
 2742-26-26      2135.0000000        2143.3327637       -8.3327636719    
 2670-26-18      2129.0000000        2145.6335449       -16.633544922    
 2660-26-120     2188.0000000        2178.2915039        9.7084960938    
 2931-26-22      2410.0000000        2444.9562988       -34.956298828    
 2595-26-12      1779.0000000        1783.6977539       -4.6977539062    
 2596-26-1       1776.0000000        1780.8186035       -4.8186035156    
 2589-26-11      1776.0000000        1781.4434814       -5.4434814453    
 2588-26-1       1774.0000000        1782.6624756       -8.6624755859    
 2564-26-12      1779.0000000        1785.6884766       -6.6884765625    
 2529-26-12      1789.0000000        1798.6162109       -9.6162109375    
 2449-26-11      1828.0000000        1827.7442627       0.25573730469    
 2492-26-13      1813.0000000        1807.5172119        5.4827880859    
 2452-26-12      1795.0000000        1809.8775635       -14.877563477    
 2303-26-1       1795.0000000        1823.3737793       -28.373779297    
 2296-26-12      1805.0000000        1822.5074463       -17.507446289    
 2301-26-14      1821.0000000        1825.6381836       -4.6381835938    
 2300-26-11      1839.0000000        1834.9718018        4.0281982422    
 2220-26-11      1844.0000000        1842.3916016        1.6083984375    
 2089-26-1       1825.0000000        1841.6386719       -16.638671875    
 2088-26-12      1831.0000000        1843.5660400       -12.566040039    
 2448-26-11      1837.0000000        1840.5214844       -3.5214843750    
 2099-26-1       1851.0000000        1855.5947266       -4.5947265625    
 1922-26-1       1870.0000000        1874.6505127       -4.6505126953    
 1983-26-11      1883.0000000        1888.1300049       -5.1300048828    
 1930-26-14      1888.0000000        1920.1793213       -32.179321289    
 2649-26-27      2098.0000000        2101.9060059       -3.9060058594    
 2505-26-32      2152.0000000        2172.3034668       -20.303466797    
 2464-26-29      2151.0000000        2178.0239258       -27.023925781    
 2388-26-32      2173.0000000        2200.5400391       -27.540039062    
 2412-26-20      2232.0000000        2250.8520508       -18.852050781    
 2289-26-29      2181.0000000        2206.8820801       -25.882080078    
 2236-26-19      2195.0000000        2212.2358398       -17.235839844    
 2183-26-29      2163.0000000        2209.1860352       -46.186035156    
 2215-26-104     2435.0000000        2421.1196289        13.880371094    
 2162-26-102     2323.0000000        2331.2050781       -8.2050781250    
 2130-26-69      2258.0000000        2263.5056152       -5.5056152344    
 1990-26-67      2274.0000000        2275.2551270       -1.2551269531    
 2103-26-67      2293.0000000        2291.6320801        1.3679199219    
 2055-26-102     2292.0000000        2296.0566406       -4.0566406250    
 1997-26-183     2331.0000000        2337.0961914       -6.0961914062    
 2339-26-104     2473.0000000        2492.1862793       -19.186279297    
 2100-26-117     2518.0000000        2522.6560059       -4.6560058594    
 2010-26-75      2379.0000000        2406.8493652       -27.849365234    
 1428-26-1       1959.0000000        1968.6326904       -9.6326904297    
 1383-26-8       2004.0000000        1983.4593506        20.540649414    
 1819-26-1       1912.0000000        1909.5012207        2.4987792969    
 1748-26-11      1915.0000000        1914.6105957       0.38940429688    
 1702-26-11      1892.0000000        1894.8812256       -2.8812255859    
 1710-26-1       1884.0000000        1897.6175537       -13.617553711    
 1663-26-1       1894.0000000        1902.3673096       -8.3673095703    
 1612-26-11      1921.0000000        1938.1199951       -17.119995117    
 1407-26-11      1992.0000000        1978.6087646        13.391235352    
 1364-26-11      1996.0000000        1984.8861084        11.113891602    
 1266-26-8       2015.0000000        2011.5920410        3.4079589844    
 1336-26-11      2008.0000000        2000.7315674        7.2684326172    
 1337-26-11      2002.0000000        1990.1472168        11.852783203    
 1264-26-1       2006.0000000        2008.7749023       -2.7749023438    
 1849-26-40      2254.0000000        2271.4030762       -17.403076172    
 1832-26-40      2225.0000000        2246.1679688       -21.167968750    
 1690-26-33      2246.0000000        2268.9487305       -22.948730469    
 1691-26-1       2240.0000000        2262.6125488       -22.612548828    
 1417-26-60      2352.0000000        2331.9594727        20.040527344    
 1386-26-34      2348.0000000        2338.6462402        9.3537597656    
 1329-26-35      2350.0000000        2357.6274414       -7.6274414062    
 1278-26-33      2365.0000000        2366.4836426       -1.4836425781    
 1879-26-69      2338.0000000        2341.7099609       -3.7099609375    
 1811-26-68      2332.0000000        2329.2734375        2.7265625000    
 1837-26-60      2337.0000000        2338.1679688       -1.1679687500    
 1907-26-68      2328.0000000        2327.3654785       0.63452148438    
 1888-26-68      2311.0000000        2309.0612793        1.9387207031    
 1779-26-67      2313.0000000        2306.6120605        6.3879394531    
 1619-26-67      2340.0000000        2301.1901855        38.809814453    
 1723-26-60      2306.0000000        2306.2395020      -0.23950195312    
 1694-26-68      2322.0000000        2325.8781738       -3.8781738281    
 1658-26-67      2325.0000000        2317.6689453        7.3310546875    
 1655-26-69      2339.0000000        2339.1979980      -0.19799804688    
 1614-26-69      2341.0000000        2337.1984863        3.8015136719    
 1596-26-69      2343.0000000        2345.2587891       -2.2587890625    
 1630-26-69      2351.0000000        2354.0004883       -3.0004882812    
 1552-26-74      2343.0000000        2334.9343262        8.0656738281    
 1467-26-76      2341.0000000        2318.1643066        22.835693359    
 1470-26-74      2328.0000000        2324.5937500        3.4062500000    
 1455-26-81      2338.0000000        2325.5209961        12.479003906    
 1443-26-81      2342.0000000        2327.6960449        14.303955078    
 1465-26-74      2337.0000000        2327.7824707        9.2175292969    
 1440-26-74      2343.0000000        2336.6416016        6.3583984375    
 1474-26-75      2350.0000000        2349.1003418       0.89965820312    
 1453-26-71      2351.0000000        2345.2802734        5.7197265625    
 1488-26-70      2350.0000000        2374.8762207       -24.876220703    
 1502-26-71      2352.0000000        2368.6989746       -16.698974609    
 1477-26-60      2354.0000000        2368.8432617       -14.843261719    
 1458-26-153     2351.0000000        2375.7756348       -24.775634766    
 1429-26-71      2371.0000000        2384.4323730       -13.432373047    
 1397-26-71      2361.0000000        2359.0854492        1.9145507812    
 1416-26-76      2364.0000000        2332.7438965        31.256103516    
 1312-26-88      2410.0000000        2374.5480957        35.451904297    
 1359-26-82      2387.0000000        2404.6267090       -17.626708984    
 1333-26-82      2391.0000000        2410.9458008       -19.945800781    
 1295-26-84      2407.0000000        2430.0649414       -23.064941406    
 1892-26-193     2511.0000000        2533.6210938       -22.621093750    
 1940-26-109     2485.0000000        2486.7287598       -1.7287597656    
 1659-26-71      2364.0000000        2393.6989746       -29.698974609    
 1671-26-60      2365.0000000        2385.1252441       -20.125244141    
 1627-26-70      2374.0000000        2391.1855469       -17.185546875    
 1677-26-83      2490.0000000        2485.3581543        4.6418457031    
 1602-26-83      2397.0000000        2470.2148438       -73.214843750    
 1604-26-83      2484.0000000        2483.6589355       0.34106445312    
 1669-26-109     2529.0000000        2551.2822266       -22.282226562    
 1622-26-109     2528.0000000        2548.2326660       -20.232666016    
 1553-26-88      2529.0000000        2523.0258789        5.9741210938    
 1563-26-88      2526.0000000        2510.5107422        15.489257812    
 1586-26-84      2483.0000000        2488.5422363       -5.5422363281    
 1507-26-75      2376.0000000        2414.3181152       -38.318115234    
 1495-26-60      2377.0000000        2418.6435547       -41.643554688    
 1484-26-75      2370.0000000        2412.1691895       -42.169189453    
 1489-26-88      2488.0000000        2491.9821777       -3.9821777344    
 1464-26-88      2529.0000000        2505.6201172        23.379882812    
 1414-26-95      2547.0000000        2582.6110840       -35.611083984    
 1395-26-88      2457.0000000        2465.3645020       -8.3645019531    
 1377-26-83      2461.0000000        2466.7561035       -5.7561035156    
 1375-26-88      2509.0000000        2496.4985352        12.501464844    
 1396-26-70      2427.0000000        2435.2365723       -8.2365722656    
 1415-26-84      2403.0000000        2414.6320801       -11.632080078    
 1300-26-213     2560.0000000        2571.6589355       -11.658935547    
 1276-26-95      2557.0000000        2603.9169922       -46.916992188    
 1354-26-95      2713.0000000        2684.2253418        28.774658203    
 1358-26-95      2714.0000000        2673.1335449        40.866455078    
 846-26-13       2358.0000000        2360.6931152       -2.6931152344    
 833-26-13       2354.0000000        2343.9538574        10.046142578    
 827-26-13       2353.0000000        2333.6516113        19.348388672    
 845-26-13       2306.0000000        2278.9802246        27.019775391    
 1105-26-118     2038.0000000        2063.3894043       -25.389404297    
 1120-26-13      2034.0000000        2068.0781250       -34.078125000    
 1088-26-91      2090.0000000        2074.0297852        15.970214844    
 809-26-13       2198.0000000        2202.7490234       -4.7490234375    
 1235-26-36      2364.0000000        2368.3571777       -4.3571777344    
 1239-26-33      2364.0000000        2365.9375000       -1.9375000000    
 1227-26-33      2367.0000000        2373.5200195       -6.5200195312    
 1219-26-36      2358.0000000        2373.7900391       -15.790039062    
 1168-26-35      2377.0000000        2386.8503418       -9.8503417969    
 1140-26-35      2383.0000000        2395.2490234       -12.249023438    
 1160-26-36      2371.0000000        2394.4965820       -23.496582031    
 1121-26-36      2378.0000000        2406.2797852       -28.279785156    
 1080-26-36      2443.0000000        2424.9543457        18.045654297    
 1048-26-36      2445.0000000        2429.4565430        15.543457031    
 1075-26-36      2428.0000000        2420.0695801        7.9304199219    
 1016-26-36      2387.0000000        2429.8398438       -42.839843750    
 1011-26-36      2378.0000000        2433.2468262       -55.246826172    
 1083-26-35      2391.0000000        2408.8381348       -17.838134766    
 997-26-244      2404.0000000        2423.7985840       -19.798583984    
 910-26-166      2463.0000000        2458.2387695        4.7612304688    
 1212-26-64      2374.0000000        2420.3090820       -46.309082031    
 1131-26-349     2441.0000000        2415.9477539        25.052246094    
 1188-26-60      2481.0000000        2434.9167480        46.083251953    
 1076-26-341     2520.0000000        2489.9680176        30.031982422    
 1000-26-18      2522.0000000        2504.2758789        17.724121094    
 1095-26-18      2462.0000000        2451.8012695        10.198730469    
 1035-26-61      2488.0000000        2461.0827637        26.917236328    
 1037-26-60      2477.0000000        2442.9594727        34.040527344    
 878-26-60       2496.0000000        2476.4208984        19.579101562    
 1250-26-84      2437.0000000        2451.4321289       -14.432128906    
 1251-26-84      2433.0000000        2449.5131836       -16.513183594    
 1195-26-81      2500.0000000        2481.9184570        18.081542969    
 1110-26-62      2530.0000000        2514.3488770        15.651123047    
 1044-26-82      2565.0000000        2581.7487793       -16.748779297    
 1017-26-62      2545.0000000        2559.7150879       -14.715087891    
 973-26-95       2601.0000000        2634.6086426       -33.608642578    
 870-26-95       2615.0000000        2657.0275879       -42.027587891    
 3417-26-95      2627.0000000        2656.5468750       -29.546875000    
 1246-26-305     2722.0000000        2734.2500000       -12.250000000    
 1593-26-18      2766.0000000        2791.8940430       -25.894042969    
 757-26-141      2333.0000000        2382.8896484       -49.889648438    
 758-26-1        2395.0000000        2402.7592773       -7.7592773438    
 722-26-64       2443.0000000        2453.0805664       -10.080566406    
 737-26-1        2415.0000000        2427.7817383       -12.781738281    
 656-26-1        2498.0000000        2508.2788086       -10.278808594    
 602-26-1        2502.0000000        2527.9387207       -25.938720703    
 598-26-1        2492.0000000        2483.7492676        8.2507324219    
 720-26-1        2222.0000000        2254.2233887       -32.223388672    
 674-26-43       2549.0000000        2545.2937012        3.7062988281    
 673-26-49       2545.0000000        2557.1711426       -12.171142578    
 810-26-43       2512.0000000        2495.9257812        16.074218750    
 785-26-65       2582.0000000        2609.1491699       -27.149169922    
 681-26-96       2620.0000000        2634.1645508       -14.164550781    
 608-26-64       2631.0000000        2658.0432129       -27.043212891    
 559-26-60       2643.0000000        2684.9472656       -41.947265625    
 731-26-98       2678.0000000        2725.2785645       -47.278564453    
 683-26-91       2679.0000000        2719.6623535       -40.662353516    
 496-26-56       2578.0000000        2589.2741699       -11.274169922    
 408-26-46       2653.0000000        2693.9609375       -40.960937500    
 391-26-72       2685.0000000        2655.7368164        29.263183594    
 451-26-85       2697.0000000        2744.9848633       -47.984863281    
 477-26-63       2661.0000000        2651.9152832        9.0847167969    
 302-26-47       2680.0000000        2688.0446777       -8.0446777344    
 295-26-47       2724.0000000        2699.8347168        24.165283203    
 281-26-47       2687.0000000        2709.3681641       -22.368164062    
 270-26-41       2694.0000000        2724.4543457       -30.454345703    
 278-26-11       2716.0000000        2718.5209961       -2.5209960938    
 250-26-11       2727.0000000        2736.2866211       -9.2866210938    
 3333-27-99      1707.0000000        1727.9056396       -20.905639648    
 3176-27-347     1652.0000000        1694.5148926       -42.514892578    
 3055-27-126     2453.0000000        2509.5776367       -56.577636719    
 2747-27-253     2052.0000000        2083.0397949       -31.039794922    
 995-27-236      2110.0000000        2094.0549316        15.945068359    
 778-27-348      2610.0000000        2592.9204102        17.079589844    
 718-27-151      2631.0000000        2649.8354492       -18.835449219    
 3239-30-335     2915.0000000        2885.5881348        29.411865234    
 3181-30-185     2850.0000000        2844.4079590        5.5920410156    
 3211-30-274     2885.0000000        2916.3066406       -31.306640625    
 3189-30-181     2873.0000000        2861.7998047        11.200195312    
 3198-30-274     2910.0000000        2893.1994629        16.800537109    
 3192-30-274     2905.0000000        2891.9658203        13.034179688    
 3124-30-213     2790.0000000        2807.5541992       -17.554199219    
 2832-30-108     2015.0000000        2026.9887695       -11.988769531    
 2673-30-244     2073.0000000        2108.3220215       -35.322021484    
 2876-30-99      2185.0000000        2203.0012207       -18.001220703    
 2774-30-91      2193.0000000        2183.3012695        9.6987304688    
 2733-30-27      2093.0000000        2119.8803711       -26.880371094    
 2603-30-29      2118.0000000        2129.8239746       -11.823974609    
 2652-30-27      2115.0000000        2134.7160645       -19.716064453    
 2576-30-30      2130.0000000        2166.5632324       -36.563232422    
 2542-30-30      2154.0000000        2179.2160645       -25.216064453    
 2505-30-29      2150.0000000        2174.9868164       -24.986816406    
 2355-30-1       2157.0000000        2185.5778809       -28.577880859    
 2464-30-29      2154.0000000        2179.7641602       -25.764160156    
 2357-30-30      2173.0000000        2194.9770508       -21.977050781    
 2373-30-30      2161.0000000        2195.0131836       -34.013183594    
 2446-30-30      2180.0000000        2202.2561035       -22.256103516    
 2445-30-121     2188.0000000        2214.4316406       -26.431640625    
 2237-30-34      2202.0000000        2220.9040527       -18.904052734    
 2137-30-35      2201.0000000        2215.6127930       -14.612792969    
 2109-30-30      2196.0000000        2213.5708008       -17.570800781    
 2038-30-1       2202.0000000        2223.1032715       -21.103271484    
 2059-30-35      2212.0000000        2224.1777344       -12.177734375    
 2227-30-273     2279.0000000        2274.0012207        4.9987792969    
 2056-30-18      2281.0000000        2266.8115234        14.188476562    
 2019-30-111     2276.0000000        2269.1706543        6.8293457031    
 1998-30-244     2298.0000000        2310.7277832       -12.727783203    
 2086-30-14      2348.0000000        2343.2016602        4.7983398438    
 2069-30-244     2359.0000000        2363.2492676       -4.2492675781    
 2081-30-105     2369.0000000        2353.3439941        15.656005859    
 2246-30-335     2440.0000000        2494.5791016       -54.579101562    
 2001-30-305     2546.0000000        2535.5019531        10.498046875    
 1617-30-121     2310.0000000        2285.4484863        24.551513672    
 1391-30-43      2344.0000000        2336.4694824        7.5305175781    
 1427-30-11      2340.0000000        2336.2187500        3.7812500000    
 1400-30-42      2345.0000000        2339.7255859        5.2744140625    
 1619-30-57      2328.0000000        2296.6936035        31.306396484    
 1693-30-51      2339.0000000        2343.3925781       -4.3925781250    
 1500-30-56      2304.0000000        2312.2839355       -8.2839355469    
 1312-30-349     2406.0000000        2363.0974121        42.902587891    
 1874-30-1       2575.0000000        2578.2053223       -3.2053222656    
 1857-30-157     2523.0000000        2527.6657715       -4.6657714844    
 1843-30-213     2506.0000000        2507.7141113       -1.7141113281    
 1846-30-43      2486.0000000        2459.3173828        26.682617188    
 1676-30-79      2516.0000000        2505.9536133        10.046386719    
 1574-30-246     2530.0000000        2542.6999512       -12.699951172    
 1368-30-60      2431.0000000        2437.2182617       -6.2182617188    
 1366-30-43      2461.0000000        2463.4250488       -2.4250488281    
 1348-30-43      2520.0000000        2507.0585938        12.941406250    
 1320-30-335     2645.0000000        2587.7529297        57.247070312    
 1276-30-121     2559.0000000        2604.1704102       -45.170410156    
 1751-30-305     2638.0000000        2637.6105957       0.38940429688    
 1752-30-305     2582.0000000        2589.9484863       -7.9484863281    
 1749-30-305     2565.0000000        2581.8449707       -16.844970703    
 1754-30-130     2612.0000000        2600.7895508        11.210449219    
 812-30-6        2350.0000000        2365.1467285       -15.146728516    
 1235-30-43      2363.0000000        2370.5273438       -7.5273437500    
 1197-30-43      2463.0000000        2413.1879883        49.812011719    
 1187-30-182     2476.0000000        2427.2167969        48.783203125    
 1194-30-1       2495.0000000        2466.2678223        28.732177734    
 529-30-351      2510.0000000        2539.0273438       -29.027343750    
 686-30-127      2532.0000000        2531.6005859       0.39941406250    
 488-30-44       2517.0000000        2566.4855957       -49.485595703    
 485-30-351      2554.0000000        2566.4423828       -12.442382812    
 476-30-60       2570.0000000        2576.9633789       -6.9633789062    
 408-30-349      2630.0000000        2694.3571777       -64.357177734    
 402-30-213      2615.0000000        2651.2612305       -36.261230469    
 366-30-42       2663.0000000        2665.1577148       -2.1577148438    
 301-30-342      2660.0000000        2688.7451172       -28.745117188    
 270-30-342      2667.0000000        2718.0183105       -51.018310547    
 3376-31-2       1547.0000000        1569.9973145       -22.997314453    
 3351-31-101     1629.0000000        1640.1997070       -11.199707031    
 3272-31-104     2957.0000000        2921.6416016        35.358398438    
 3145-31-193     1750.0000000        1690.4652100        59.534790039    
 3161-31-244     1725.0000000        1697.8981934        27.101806641    
 3038-31-1       1696.0000000        1754.3599854       -58.359985352    
 3243-31-1       2895.0000000        2887.9519043        7.0480957031    
 3256-31-104     2929.0000000        2887.8513184        41.148681641    
 3208-31-273     2890.0000000        2854.2922363        35.707763672    
 3153-31-348     2821.0000000        2815.4597168        5.5402832031    
 3164-31-283     2845.0000000        2841.8688965        3.1311035156    
 3093-31-104     2691.0000000        2738.1499023       -47.149902344    
 2787-31-57      1715.0000000        1728.4470215       -13.447021484    
 2734-31-1       1719.0000000        1727.1455078       -8.1455078125    
 2823-31-196     1708.0000000        1720.3837891       -12.383789062    
 2927-31-29      1953.0000000        1944.3830566        8.6169433594    
 2743-31-220     2083.0000000        2093.6630859       -10.663085938    
 2756-31-252     2034.0000000        2068.1452637       -34.145263672    
 2699-31-1       2064.0000000        2092.4631348       -28.463134766    
 2687-31-266     2081.0000000        2086.0270996       -5.0270996094    
 2615-31-1       1813.0000000        1805.6663818        7.3336181641    
 2650-31-60      2101.0000000        2091.8217773        9.1782226562    
 2558-31-121     2120.0000000        2136.8786621       -16.878662109    
 2475-31-120     2142.0000000        2182.5068359       -40.506835938    
 2460-31-120     2159.0000000        2185.6135254       -26.613525391    
 2427-31-120     2172.0000000        2200.2404785       -28.240478516    
 2326-31-121     2234.0000000        2236.3728027       -2.3728027344    
 2212-31-121     2209.0000000        2217.1020508       -8.1020507812    
 1991-31-36      2203.0000000        2223.5822754       -20.582275391    
 1958-31-36      2205.0000000        2228.3288574       -23.328857422    
 2057-31-121     2211.0000000        2227.3947754       -16.394775391    
 1951-31-36      2239.0000000        2252.1279297       -13.127929688    
 2014-31-121     2308.0000000        2282.9482422        25.051757812    
 1974-31-120     2295.0000000        2284.5380859        10.461914062    
 2102-31-119     2325.0000000        2333.8635254       -8.8635253906    
 2054-31-91      2321.0000000        2327.0905762       -6.0905761719    
 2339-31-78      2474.0000000        2493.4506836       -19.450683594    
 2330-31-196     2520.0000000        2560.9570312       -40.957031250    
 2100-31-78      2521.0000000        2522.6967773       -1.6967773438    
 2043-31-211     2485.0000000        2485.0603027      -6.03027343750E-02
 1849-31-1       2249.0000000        2261.9924316       -12.992431641    
 1471-31-113     2330.0000000        2316.3981934        13.601806641    
 1461-31-40      2308.0000000        2316.8232422       -8.8232421875    
 1321-31-40      2335.0000000        2350.1789551       -15.178955078    
 1306-31-113     2337.0000000        2350.9133301       -13.913330078    
 1307-31-113     2342.0000000        2350.7299805       -8.7299804688    
 1305-31-121     2345.0000000        2352.8891602       -7.8891601562    
 1886-31-119     2327.0000000        2332.3178711       -5.3178710938    
 1879-31-119     2322.0000000        2325.3144531       -3.3144531250    
 1779-31-119     2295.0000000        2292.5422363        2.4577636719    
 1724-31-118     2294.0000000        2290.8103027        3.1896972656    
 1694-31-119     2307.0000000        2310.0009766       -3.0009765625    
 1695-31-120     2314.0000000        2307.4489746        6.5510253906    
 1596-31-119     2320.0000000        2330.1806641       -10.180664062    
 1683-31-68      2347.0000000        2359.2021484       -12.202148438    
 1552-31-117     2327.0000000        2324.2758789        2.7241210938    
 1533-31-118     2316.0000000        2310.2756348        5.7243652344    
 1813-31-117     2308.0000000        2308.3952637      -0.39526367188    
 1538-31-117     2310.0000000        2306.0048828        3.9951171875    
 1470-31-117     2313.0000000        2316.5559082       -3.5559082031    
 1453-31-117     2336.0000000        2338.0810547       -2.0810546875    
 1502-31-120     2339.0000000        2363.1086426       -24.108642578    
 1416-31-62      2338.0000000        2325.8371582        12.162841797    
 1784-31-148     2366.0000000        2381.7160645       -15.716064453    
 1659-31-114     2355.0000000        2382.5290527       -27.529052734    
 1671-31-114     2350.0000000        2370.1354980       -20.135498047    
 1602-31-114     2371.0000000        2459.8483887       -88.848388672    
 1507-31-114     2358.0000000        2400.4421387       -42.442138672    
 1514-31-114     2349.0000000        2387.2858887       -38.285888672    
 1495-31-69      2358.0000000        2404.6606445       -46.660644531    
 1484-31-114     2348.0000000        2398.0424805       -50.042480469    
 1483-31-114     2436.0000000        2464.2026367       -28.202636719    
 1239-31-113     2352.0000000        2363.0290527       -11.029052734    
 1234-31-113     2349.0000000        2360.8264160       -11.826416016    
 1099-31-117     2361.0000000        2415.0329590       -54.032958984    
 853-31-118      2482.0000000        2466.2441406        15.755859375    
 720-31-1        2221.0000000        2252.0168457       -31.016845703    
 729-31-118      2508.0000000        2514.2377930       -6.2377929688    
 679-31-118      2516.0000000        2526.6281738       -10.628173828    
 810-31-118      2479.0000000        2481.4499512       -2.4499511719    
 299-31-59       2671.0000000        2695.8557129       -24.855712891    
 3281-32-351     1586.0000000        1625.1424561       -39.142456055    
 3347-32-97      2965.0000000        2958.3920898        6.6079101562    
 3051-32-152     1691.0000000        1693.3430176       -2.3430175781    
 3004-32-94      2011.0000000        2005.8542480        5.1457519531    
 2997-32-94      2234.0000000        2250.4018555       -16.401855469    
 3016-32-94      2280.0000000        2330.5107422       -50.510742188    
 3055-32-94      2452.0000000        2514.4736328       -62.473632812    
 2880-32-95      2083.0000000        2072.9157715        10.084228516    
 2883-32-196     2011.0000000        2028.9822998       -17.982299805    
 2977-32-96      2361.0000000        2373.4006348       -12.400634766    
 2914-32-96      2130.0000000        2118.2626953        11.737304688    
 2930-32-96      2337.0000000        2343.7070312       -6.7070312500    
 2869-32-96      2320.0000000        2333.3151855       -13.315185547    
 2898-32-96      2125.0000000        2112.1713867        12.828613281    
 2841-32-96      2182.0000000        2203.0690918       -21.069091797    
 2742-32-95      2130.0000000        2139.6535645       -9.6535644531    
 2956-32-95      2527.0000000        2523.3364258        3.6635742188    
 2441-32-216     1804.0000000        1774.3391113        29.660888672    
 2477-32-137     1798.0000000        1797.9682617       3.17382812500E-02
 2334-32-335     2382.0000000        2385.6811523       -3.6811523438    
 2314-32-342     2365.0000000        2356.6030273        8.3969726562    
 2331-32-29      2480.0000000        2530.8698730       -50.869873047    
 2128-32-154     2478.0000000        2445.4020996        32.597900391    
 2092-32-154     2468.0000000        2438.6984863        29.301513672    
 2085-32-154     2448.0000000        2474.0979004       -26.097900391    
 1278-32-50      2361.0000000        2358.1296387        2.8703613281    
 1791-32-119     2331.0000000        2336.5520020       -5.5520019531    
 1131-32-62      2436.0000000        2406.4086914        29.591308594    
 1035-32-71      2477.0000000        2444.9404297        32.059570312    
 2799-35-122     1998.0000000        2030.9825439       -32.982543945    
 861-35-329      2230.0000000        2159.4526367        70.547363281    
 3038-36-52      1680.0000000        1742.1239014       -62.123901367    
 2937-36-86      1764.0000000        1790.2208252       -26.220825195    
 1428-36-91      1955.0000000        1938.4525146        16.547485352    
 1106-36-164     2031.0000000        2046.3214111       -15.321411133    
 727-36-333      2585.0000000        2607.7319336       -22.731933594    
 492-36-108      2478.0000000        2511.7495117       -33.749511719    
 380-36-78       2594.0000000        2473.5026855        120.49731445    
 3318-37-364     1613.0000000        1650.1549072       -37.154907227    
 2476-37-182     2165.0000000        2190.9282227       -25.928222656    
 2437-37-1       2175.0000000        2197.8837891       -22.883789062    
 1436-37-201     2321.0000000        2333.1452637       -12.145263672    
 974-37-342      2328.0000000        2407.4829102       -79.482910156    
 981-37-84       2562.0000000        2593.0905762       -31.090576172    
 814-37-58       2570.0000000        2600.9206543       -30.920654297    
 697-37-41       2615.0000000        2659.7780762       -44.778076172    
 659-37-16       2662.0000000        2622.1843262        39.815673828    

 SUM OF SQUARED DIFFERENCE:    7.99637E+06

 Run end date and time (yyyy/mm/dd hh:mm:ss): 2015/01/26  9:23:55
 Elapsed run time: 43.310 Seconds

