                                  MODFLOW-NWT-SWR1 
      U.S. GEOLOGICAL SURVEY MODULAR FINITE-DIFFERENCE GROUNDWATER-FLOW MODEL
                            VERSION 1.1.2, 9/15/2016
                    BASED ON MODFLOW-2005 VERSION 1.11.00 08/30/2013

 LIST FILE: nwt40_gmres.lst
                         UNIT   30

 OPENING 4010.hds
 FILE TYPE:DATA   UNIT   31   STATUS:UNKNOWN
 FORMAT:FORMATTED              ACCESS:SEQUENTIAL          

 OPENING graphs.out
 FILE TYPE:DATA(BINARY)   UNIT   33   STATUS:UNKNOWN
 FORMAT:UNFORMATTED            ACCESS:STREAM              

 OPENING hobs.dat
 FILE TYPE:DATA   UNIT   34   STATUS:UNKNOWN
 FORMAT:FORMATTED              ACCESS:SEQUENTIAL          

 OPENING lost_pumpage.dat
 FILE TYPE:DATA   UNIT   35   STATUS:UNKNOWN
 FORMAT:FORMATTED              ACCESS:SEQUENTIAL          

 OPENING cbc.bgt
 FILE TYPE:DATA(BINARY)   UNIT   39   STATUS:UNKNOWN
 FORMAT:UNFORMATTED            ACCESS:STREAM              
#                                                                                                                                                                                                                                                                                                           
#  Model Input files                                                                                                                                                                                                                                                                                        
#                                                                                                                                                                                                                                                                                                           

 OPENING tuc2011d.hob
 FILE TYPE:HOB   UNIT    8   STATUS:OLD    
 FORMAT:FORMATTED              ACCESS:SEQUENTIAL          

 OPENING tuchyd93.hyd
 FILE TYPE:HYD   UNIT    9   STATUS:OLD    
 FORMAT:FORMATTED              ACCESS:SEQUENTIAL          
#                                                                                                                                                                                                                                                                                                           
#  Parameter Files                                                                                                                                                                                                                                                                                          

 OPENING tuc1940q1.dis
 FILE TYPE:DIS   UNIT   10   STATUS:OLD    
 FORMAT:FORMATTED              ACCESS:SEQUENTIAL          

 OPENING tuc1940z.bas
 FILE TYPE:BAS6   UNIT   11   STATUS:OLD    
 FORMAT:FORMATTED              ACCESS:SEQUENTIAL          

 OPENING tuc1940t.upw
 FILE TYPE:UPW   UNIT   12   STATUS:OLD    
 FORMAT:FORMATTED              ACCESS:SEQUENTIAL          
#  Stress Files                                                                                                                                                                                                                                                                                             

 OPENING tuc2010q10.wel
 FILE TYPE:WEL   UNIT   13   STATUS:OLD    
 FORMAT:FORMATTED              ACCESS:SEQUENTIAL          

 OPENING TUC1940d.EVT
 FILE TYPE:EVT   UNIT   14   STATUS:OLD    
 FORMAT:FORMATTED              ACCESS:SEQUENTIAL          

 OPENING tuc2010a3.chd
 FILE TYPE:CHD   UNIT   15   STATUS:OLD    
 FORMAT:FORMATTED              ACCESS:SEQUENTIAL          

 OPENING tuc2010n1.rch
 FILE TYPE:RCH   UNIT   16   STATUS:OLD    
 FORMAT:FORMATTED              ACCESS:SEQUENTIAL          
#  Solver & Output Control                                                                                                                                                                                                                                                                                  
#NWT              19      xMD1.nwt                                                                                                                                                                                                                                                                          

 OPENING gmres1.nwt
 FILE TYPE:NWT   UNIT   19   STATUS:OLD    
 FORMAT:FORMATTED              ACCESS:SEQUENTIAL          

 OPENING tuc4010a1.oc
 FILE TYPE:OC   UNIT   22   STATUS:OLD    
 FORMAT:FORMATTED              ACCESS:SEQUENTIAL          

 BAS -- BASIC PACKAGE, VERSION 1.1.2, 9/15/2016 INPUT READ FROM UNIT   11

 MODFLOW was compiled using mixed precision
 Precision of REAL variables:           6
 Precision of DOUBLE PRECISION variables:          15

 DISCRETIZATION INPUT DATA READ FROM UNIT   10
 # TUCSON AMA GROUNDWATER FLOW MODEL - 1940-2010 UPDATE
 # MODEL DISCRETIZATION FILE: 08/08/2012
 # STEADY-STATE - TRANSIENT PHASE: 1940-2008  LENGTH=FEET  TIME=DAYS
    3 LAYERS       130 ROWS       100 COLUMNS
   71 STRESS PERIOD(S) IN SIMULATION
 MODEL TIME UNIT IS DAYS
 MODEL LENGTH UNIT IS FEET
  Confining bed flag for each layer:
   0   0   0

                     DELR =   2640.00    

                     DELC =   2640.00    



           TOP ELEVATION OF LAYER 1
 READING ON UNIT   10 WITH FORMAT: (15F5.0)            



             MODEL LAYER BOTTOM EL. FOR LAYER   1
 READING ON UNIT   10 WITH FORMAT: (15F5.0)            



             MODEL LAYER BOTTOM EL. FOR LAYER   2
 READING ON UNIT   10 WITH FORMAT: (15F5.0)            



             MODEL LAYER BOTTOM EL. FOR LAYER   3
 READING ON UNIT   10 WITH FORMAT: (15F5.0)            


 STRESS PERIOD     LENGTH       TIME STEPS     MULTIPLIER FOR DELT    SS FLAG
 ----------------------------------------------------------------------------
        1         366.0000          1                    1.000         SS
        2         365.0000         12                    1.000         TR
        3         365.0000         12                    1.000         TR
        4         365.0000         12                    1.000         TR
        5         366.0000         12                    1.000         TR
        6         365.0000         12                    1.000         TR
        7         365.0000         12                    1.000         TR
        8         365.0000         12                    1.000         TR
        9         366.0000         12                    1.000         TR
       10         365.0000         12                    1.000         TR
       11         365.0000         12                    1.000         TR
       12         365.0000         12                    1.000         TR
       13         366.0000         12                    1.000         TR
       14         365.0000         12                    1.000         TR
       15         365.0000         12                    1.000         TR
       16         365.0000         12                    1.000         TR
       17         366.0000         12                    1.000         TR
       18         365.0000         12                    1.000         TR
       19         365.0000         12                    1.000         TR
       20         365.0000         12                    1.000         TR
       21         366.0000         12                    1.000         TR
       22         365.0000         12                    1.000         TR
       23         365.0000         12                    1.000         TR
       24         365.0000         12                    1.000         TR
       25         366.0000         12                    1.000         TR
       26         365.0000         12                    1.000         TR
       27         365.0000         12                    1.000         TR
       28         365.0000         12                    1.000         TR
       29         366.0000         12                    1.000         TR
       30         365.0000         12                    1.000         TR
       31         365.0000         12                    1.000         TR
       32         365.0000         12                    1.000         TR
       33         366.0000         12                    1.000         TR
       34         365.0000         12                    1.000         TR
       35         365.0000         12                    1.000         TR
       36         365.0000         12                    1.000         TR
       37         366.0000         12                    1.000         TR
       38         365.0000         12                    1.000         TR
       39         365.0000         12                    1.000         TR
       40         365.0000         12                    1.000         TR
       41         366.0000         12                    1.000         TR
       42         365.0000         12                    1.000         TR
       43         365.0000         12                    1.000         TR
       44         365.0000         12                    1.000         TR
       45         366.0000         12                    1.000         TR
       46         365.0000         12                    1.000         TR
       47         365.0000         12                    1.000         TR
       48         365.0000         12                    1.000         TR
       49         366.0000         12                    1.000         TR
       50         365.0000         12                    1.000         TR
       51         365.0000         12                    1.000         TR
       52         365.0000         12                    1.000         TR
       53         366.0000         12                    1.000         TR
       54         365.0000         12                    1.000         TR
       55         365.0000         12                    1.000         TR
       56         365.0000         12                    1.000         TR
       57         366.0000         12                    1.000         TR
       58         365.0000         12                    1.000         TR
       59         365.0000         12                    1.000         TR
       60         365.0000         12                    1.000         TR
       61         366.0000         12                    1.000         TR
       62         365.0000         12                    1.000         TR
       63         365.0000         12                    1.000         TR
       64         365.0000         12                    1.000         TR
       65         366.0000         12                    1.000         TR
       66         365.0000         12                    1.000         TR
       67         365.0000         12                    1.000         TR
       68         365.0000         12                    1.000         TR
       69         366.0000         12                    1.000         TR
       70         365.0000         12                    1.000         TR
       71         365.0000         12                    1.000         TR

 COMBINED STEADY-STATE AND TRANSIENT SIMULATION




 # TUCSON AMA GROUNDWATER FLOW MODEL                                             
 # MODFLOW BASIC PACKAGE - 4/17/2014                                             
 # TRANSIENT PROJECTION: 1940-2010
 # MODEL UNITS: LENGTH=FEET  TIME=DAYS  PERLIN=365 DAYS
 THE FREE FORMAT OPTION HAS BEEN SELECTED



                     BOUNDARY ARRAY FOR LAYER   1
 READING ON UNIT   11 WITH FORMAT: (FREE)              



                     BOUNDARY ARRAY FOR LAYER   2
 READING ON UNIT   11 WITH FORMAT: (FREE)              



                     BOUNDARY ARRAY FOR LAYER   3
 READING ON UNIT   11 WITH FORMAT: (FREE)              

 AQUIFER HEAD WILL BE SET TO   0.0000     AT ALL NO-FLOW NODES (IBOUND=0).



                       INITIAL HEAD FOR LAYER   1
 READING ON UNIT   11 WITH FORMAT: (15F5.0)            



                       INITIAL HEAD FOR LAYER   2
 READING ON UNIT   11 WITH FORMAT: (15F5.0)            



                       INITIAL HEAD FOR LAYER   3
 READING ON UNIT   11 WITH FORMAT: (15F5.0)            

 OUTPUT CONTROL IS SPECIFIED ONLY AT TIME STEPS FOR WHICH OUTPUT IS DESIRED
 HEADS WILL BE SAVED WITH FORMAT: (20f7.1)            
 SAVED HEADS WILL BE LABELED
 COMPACT CELL-BY-CELL BUDGET FILES WILL BE WRITTEN
 HEAD PRINT FORMAT CODE IS   0    DRAWDOWN PRINT FORMAT CODE IS   0
 HEADS WILL BE SAVED ON UNIT   31    DRAWDOWNS WILL BE SAVED ON UNIT    0
 # NWT Input File
 # GMRES solver
 #HEADTOL  FLUXTOL MAXITEROUT THICKFACT LINMETH IPRNWT IBOTAV OPTIONS    DBDREDUCE DBDINCREASE DBDGAMMA MOMFACT BACKFLAG MAXBACKITER BACKTOL BACKREDUCE

 NWT1 -- Newton Solver, VERSION 1.1.2, 9/15/2016
         INPUT READ FROM UNIT 19

 SPECIFIED OPTION:
 SOLVER INPUT VALUES ARE SPECIFIED BY USER
 ***GMRES linear solver will be used***

   CONVERGENCE CRITERION OF   0.100000E-01 FOR HEAD SOLUTION
   AND A TOLERANCE OF   0.864000E+03 FOR FLOW SOLUTION AND 
   A MAXIMUM OF   200 OUTER ITERATIONS. 


   D-B-D REDUCTION FACTOR OF    0.900000E+00 AND 
   A D-B-D INCREASE FACTOR OF    0.100000E-03 AND 
   A D-B-D RELAXATION OF    0.000000E+00 AND 
   A MOMENTUM FACTOR OF    0.100000E+00 .


   BACKTRACKING IS ACTIVE 
   THE MAXIMUM NUMBER OF BACKTRACKS IS    30 AND 
   THE BACKTRACKING TOLERANCE IS    0.200000E+01 AND
   THE BACKTRACKING REDUCTION FACTOR IS    0.900000E+00

 GMRES -- LINEAR SOLUTION BY GMRES PACKAGE 
     adapted for HYDROTHERM by Kipp and others (2008)
     using software originally developed by Saad (1990) 19
     using algorithms described in Saad (2003)

 UPW1 -- UPSTREAM WEIGHTING FLOW PACKAGE, VERSION 1.1.2, 9/15/2016
         INPUT READ FROM UNIT 12

 # TUCSON AMA GROUNDWATER FLOW MODEL - 1940-2010
 # Upstream-Weighting Package (UPW): 04/17/2014
 # STEADY-STATE/TRANSIENT PHASE: 1940-2010
 CELL-BY-CELL FLOWS WILL BE SAVED ON UNIT   39
 No named parameters

   LAYER FLAGS:
 LAYER       LAYTYP          LAYAVG    CHANI           LAYVKA           LAYWET
 ---------------------------------------------------------------------------
    1             1             0     1.000E+00             1             0
    2             3             0     1.000E+00             1             0
    3             3             0     1.000E+00             1             0

   INTERPRETATION OF LAYER FLAGS:
                        INTERBLOCK     HORIZONTAL    DATA IN
         LAYER TYPE   TRANSMISSIVITY   ANISOTROPY   ARRAY VKA   WETTABILITY
 LAYER   (LAYTYP)        (LAYAVG)      (CHANI)     (LAYVKA)       (LAYWET)
 ---------------------------------------------------------------------------
    1   CONVERTIBLE      HARMONIC     1.000E+00    ANISOTROPY  NON-WETTABLE
    2   CONVERTIBLE      HARMONIC     1.000E+00    ANISOTROPY  NON-WETTABLE
    3   CONVERTIBLE      HARMONIC     1.000E+00    ANISOTROPY  NON-WETTABLE



              HYD. COND. ALONG ROWS FOR LAYER   1
 READING ON UNIT   12 WITH FORMAT: (FREE)              



            HORIZ. TO VERTICAL ANI. FOR LAYER   1
 READING ON UNIT   12 WITH FORMAT: (FREE)              

         SPECIFIC STORAGE =  1.000000E-06 FOR LAYER   1



                     SPECIFIC YIELD FOR LAYER   1
 READING ON UNIT   12 WITH FORMAT: (FREE)              



              HYD. COND. ALONG ROWS FOR LAYER   2
 READING ON UNIT   12 WITH FORMAT: (FREE)              



            HORIZ. TO VERTICAL ANI. FOR LAYER   2
 READING ON UNIT   12 WITH FORMAT: (FREE)              

         SPECIFIC STORAGE =  1.000000E-06 FOR LAYER   2



                     SPECIFIC YIELD FOR LAYER   2
 READING ON UNIT   12 WITH FORMAT: (FREE)              



              HYD. COND. ALONG ROWS FOR LAYER   3
 READING ON UNIT   12 WITH FORMAT: (FREE)              



            HORIZ. TO VERTICAL ANI. FOR LAYER   3
 READING ON UNIT   12 WITH FORMAT: (FREE)              

         SPECIFIC STORAGE =  1.000000E-06 FOR LAYER   3



                     SPECIFIC YIELD FOR LAYER   3
 READING ON UNIT   12 WITH FORMAT: (FREE)              

 WEL -- WELL PACKAGE FOR NWT VERSION 1.1.2,  9/15/2016 INPUT READ FROM UNIT   13
 # Tucson Model 1940 to 2010 Pumpage File
 # File Date: 02/3/2014
 # TARP pumpage reduced by 95%
 # Source: H:\TUCSON\GIS\SHAPEFILES\MODEL_PUMPAGE1940-2010_V7.DBF
 #      6000       39 NOPRINT
 #SPECIFY   0.02   35
 No named parameters
 MAXIMUM OF    408 ACTIVE WELLS AT ONE TIME


     0 Well parameters

 EVT -- EVAPOTRANSPIRATION PACKAGE, VERSION 7, 5/2/2005
         INPUT READ FROM UNIT   14
 #  TUCSON MODEL UPDATE 1940-2009: EVT PACKAGE
 #  Et Rates converted to ac-ft per year
 #  All ET set to be drawn from the upper most layer
 #  Max ET Rate increased 25%:  Multiplier increased 1.7123E-5 -> 2.1406E-5
 No named parameters
 OPTION 1 -- EVAPOTRANSPIRATION FROM TOP LAYER
 CELL-BY-CELL FLOWS WILL BE SAVED ON UNIT   39


     0 Evapotranspiration parameters

 RCH -- RECHARGE PACKAGE, VERSION 7, 5/2/2005 INPUT READ FROM UNIT   16
 #  Recharge Package 1940 -> 2010 - 04/23/2014
 #  Ag recharge percentages are 33-28-25
 #  Recharge package with mountain-front and
 #  lagged USF recharge for LSCRP fixed
 #
 No named parameters
 OPTION 3 -- RECHARGE TO HIGHEST ACTIVE NODE IN EACH VERTICAL COLUMN
 CELL-BY-CELL FLOWS WILL BE SAVED ON UNIT   39


     0 Recharge parameters

 CHD -- TIME-VARIANT SPECIFIED-HEAD OPTION, VERSION 7, 5/2/2005
 INPUT READ FROM UNIT   15
 # Constant Head Package: 1940-2010
 # Tucson Groundwater Flow Model Transient Phase
 # Created using text file test1.txt - 2/23/2012
 # Pinal heads are 8 feet less than the simulated heads
 No named parameters
 MAXIMUM OF     63 TIME-VARIANT SPECIFIED-HEAD CELLS AT ONE TIME
 LISTS OF TIME-VARIANT SPECIFIED-HEAD CELLS WILL NOT BE PRINTED


     0 TIME-VARIANT SPECIFIED-HEAD PARAMETERS

 HYD -- HYDROGRAPH DATA FOR BAS PACKAGE, VERSION 7, 07/14/2006
         INPUT READ FROM UNIT  9
 HYDROGRAPH VALUES WILL BE SAVED ON UNIT:  33
 HYDROGRAPH VALUES AT DRY CELLS WILL BE:   -666.00    

 ARR INTYP  KLAY     XL            YL         HYDLBL
 ----------------------------------------------------------------
 HD   I      2   3.47192E+04   3.26268E+05  HDI002D-10-09-12CBC 
 HD   I      2   3.17765E+04   3.21662E+05  HDI002D-10-09-14CAA 
 HD   I      2   3.97224E+04   3.20634E+05  HDI002D-10-09-24DDD 
 HD   I      2   5.01975E+04   3.31511E+05  HDI002D-10-10-05DAD 
 HD   I      1   4.82614E+04   3.14342E+05  HDI001D-10-10-20DCC 
 HD   I      3   1.67478E+05   3.28933E+05  HDI003D-10-13-12DDA 
 HD   I      2   1.76558E+05   3.12876E+05  HDI002D-10-14-29DCA 
 HD   I      2   4.73470E+04   2.95857E+05  HDI002D-11-10-08DDD 
 HD   I      2   5.79608E+04   2.94613E+05  HDI002D-11-10-15AAD 
 HD   I      2   5.76848E+04   2.87946E+05  HDI002D-11-10-22ADD1
 HD   I      2   6.83984E+04   2.90443E+05  HDI002D-11-10-24AAA 
 HD   I      2   6.83752E+04   2.80643E+05  HDI002D-11-10-25DDA2
 HD   I      2   8.21897E+04   2.91320E+05  HDI002D-11-11-16CDD 
 HD   I      3   8.21897E+04   2.91320E+05  HDI003D-11-11-16CDD 
 HD   I      2   9.15970E+04   2.83522E+05  HDI002D-11-11-26BDC 
 HD   I      2   8.99591E+04   2.78171E+05  HDI002D-11-11-34ADD 
 HD   I      3   8.99591E+04   2.78171E+05  HDI003D-11-11-34ADD 
 HD   I      2   5.24757E+04   2.64220E+05  HDI002D-12-10-09DDD 
 HD   I      2   6.42663E+04   2.65469E+05  HDI002D-12-10-12CDD 
 HD   I      3   6.42663E+04   2.65469E+05  HDI003D-12-10-12CDD 
 HD   I      2   6.17957E+04   2.56212E+05  HDI002D-12-10-23DAB 
 HD   I      2   9.67122E+04   2.67653E+05  HDI002D-12-11-12BDC 
 HD   I      2   7.95526E+04   2.59503E+05  HDI002D-12-11-20AAA 
 HD   I      2   1.13419E+05   2.63386E+05  HDI002D-12-12-16BAD 
 HD   I      2   1.20787E+05   2.57115E+05  HDI002D-12-12-22ADC 
 HD   I      2   1.15974E+05   2.48533E+05  HDI002D-12-12-33AAA 
 HD   I      2   1.36473E+05   2.50639E+05  HDI002D-12-13-30DAC 
 HD   I      2   1.69992E+05   2.69936E+05  HDI002D-12-14-05CCD 
 HD   I      3   4.96494E+04   2.37760E+05  HDI003D-13-10-04CDD 
 HD   I      3   6.03308E+04   2.21868E+05  HDI003D-13-10-23CDD 
 HD   I      2   6.83726E+04   2.11442E+05  HDI002D-13-11-31CCC1
 HD   I      3   6.83726E+04   2.11442E+05  HDI003D-13-11-31CCC1
 HD   I      2   1.37326E+05   2.43566E+05  HDI002D-13-13-06AAA2
 HD   I      2   1.27238E+05   2.38920E+05  HDI002D-13-13-06DDD 
 HD   I      2   1.39899E+05   2.38212E+05  HDI002D-13-13-08BAA 
 HD   I      2   1.59116E+05   2.33159E+05  HDI002D-13-13-13BBA 
 HD   I      1   1.42469E+05   2.29623E+05  HDI001D-13-13-17DAD 
 HD   I      1   1.44785E+05   2.27704E+05  HDI001D-13-13-21BAA 
 HD   I      2   1.47530E+05   2.19924E+05  HDI002D-13-13-28ADD 
 HD   I      2   1.47273E+05   2.13662E+05  HDI002D-13-13-33DAC 
 HD   I      2   1.62726E+05   2.12350E+05  HDI002D-13-13-36DDC 
 HD   I      2   1.63835E+05   2.27705E+05  HDI002D-13-14-19BBB1
 HD   I      2   1.85724E+05   2.22468E+05  HDI002D-13-14-26BBB 
 HD   I      2   1.81350E+05   2.17816E+05  HDI002D-13-14-27CDC1
 HD   I      2   1.84441E+05   2.16607E+05  HDI002D-13-14-34AAD 
 HD   I      1   1.91401E+05   2.12372E+05  HDI001D-13-14-36CCD 
 HD   I      1   2.15602E+05   2.17461E+05  HDI001D-13-15-27DDC 
 HD   I      2   7.39286E+04   2.00922E+05  HDI002D-14-11-08CCC1
 HD   I      3   7.39286E+04   2.00922E+05  HDI003D-14-11-08CCC1
 HD   I      2   7.87016E+04   1.85152E+05  HDI002D-14-11-29DDD 
 HD   I      3   1.49677E+05   2.08711E+05  HDI003D-14-13-03CAC 
 HD   I      2   1.56033E+05   1.88406E+05  HDI002D-14-13-26DBB 
 HD   I      2   1.52252E+05   1.83052E+05  HDI002D-14-13-34ADC 
 HD   I      2   1.55001E+05   1.82547E+05  HDI002D-14-13-35CAB 
 HD   I      2   1.70627E+05   2.06292E+05  HDI002D-14-14-08BAB 
 HD   I      2   1.82652E+05   2.04281E+05  HDI002D-14-14-10ACC1
 HD   I      2   1.86523E+05   1.97819E+05  HDI002D-14-14-14CAC 
 HD   I      2   1.74670E+05   1.98415E+05  HDI002D-14-14-16CBB1
 HD   I      2   1.69775E+05   1.93563E+05  HDI002D-14-14-20CBB 
 HD   I      2   1.90402E+05   1.85499E+05  HDI002D-14-14-35AAA 
 HD   I      2   2.21974E+05   2.07776E+05  HDI002D-14-15-02DDA1
 HD   I      2   2.00261E+05   2.00463E+05  HDI002D-14-15-18AAC 
 HD   I      2   2.01057E+05   1.85311E+05  HDI002D-14-15-32BBB 
 HD   I      2   6.25477E+04   1.52763E+05  HDI002D-15-10-35AAA 
 HD   I      3   7.41254E+04   1.74757E+05  HDI003D-15-11-05CCD 
 HD   I      2   9.44895E+04   1.72190E+05  HDI002D-15-11-11ADD 
 HD   I      3   9.44895E+04   1.72190E+05  HDI003D-15-11-11ADD 
 HD   I      1   1.56722E+05   1.78910E+05  HDI001D-15-13-02ACA1
 HD   I      1   1.54144E+05   1.71940E+05  HDI001D-15-13-11CBA 
 HD   I      1   1.51394E+05   1.58706E+05  HDI001D-15-13-27ABB1
 HD   I      3   1.85084E+05   1.76604E+05  HDI003D-15-14-03DAD 
 HD   I      2   1.64631E+05   1.71336E+05  HDI002D-15-14-07CBC 
 HD   I      3   1.64120E+05   1.59214E+05  HDI003D-15-14-19CCC 
 HD   I      3   1.64123E+05   1.50829E+05  HDI003D-15-14-31CBB1
 HD   I      2   1.95823E+05   1.79748E+05  HDI002D-15-15-06BBB 
 HD   I      2   2.24838E+05   1.54948E+05  HDI002D-15-15-25DBC2
 HD   I      2   3.63196E+04   1.29003E+05  HDI002D-16-09-24DAC 
 HD   I      2   7.41227E+04   1.37178E+05  HDI002D-16-11-08CCC 
 HD   I      3   1.52254E+05   1.20824E+05  HDI003D-16-13-34AAB2
 HD   I      2   1.54404E+05   1.47695E+05  HDI002D-16-13S02BBA2
 HD   I      1   1.65161E+05   1.37495E+05  HDI001D-16-14-07CCD 
 HD   I      2   1.64907E+05   1.26989E+05  HDI002D-16-14-19CCD 
 HD   I      2   1.73942E+05   1.30732E+05  HDI002D-16-14-20ADA 
 HD   I      2   1.71539E+05   1.19012E+05  HDI002D-16-14-32BDD2
 HD   I      2   1.99234E+05   1.37930E+05  HDI002D-16-15-18ABD 
 HD   I      3   2.41308E+05   1.38623E+05  HDI003D-16-16-09DCD2
 HD   I      2   1.60003E+05   1.13653E+05  HDI002D-17-13-01CAB 
 HD   I      1   1.58891E+05   8.63786E+04  HDI001D-17-13-36CBC2
 HD   I      2   1.71895E+05   1.00122E+05  HDI002D-17-14-17DCC 
 HD   I      2   1.63972E+05   9.43603E+04  HDI002D-17-14-30BBB 
 HD   I      3   2.20194E+05   1.13015E+05  HDI003D-17-15-02DCD 
 HD   I      2   1.61219E+05   7.99142E+04  HDI002D-18-13-01CDA 
 HD   I      2   1.59669E+05   7.08220E+04  HDI002D-18-13-13CBA 
 HD   I      2   1.58637E+05   6.21349E+04  HDI002D-18-13-26AAD 
 HD   I      1   1.54583E+05   5.80934E+04  HDI001D-18-13-26CCD 
 HD   I      1   1.58984E+05   5.56700E+04  HDI001D-18-13-36BCC 
 HD   I      1   1.45440E+05   4.50633E+04  HDI001D-19-13-09CAA 
 HD   I      2   1.38013E+05   2.95093E+04  HDI002D-19-13-29BCC 
 HD   I      2   1.48392E+05   2.59222E+05  HDI002D-12-13-22BBB 
 HD   I      3   2.21974E+05   2.07776E+05  HDI003D-14-15-02DDA1
 HD   I      1   1.74585E+05   1.96698E+05  HDI001D-14-14-16CCC1
 HD   I      2   1.74585E+05   1.96698E+05  HDI002D-14-14-16CCC2
 HD   I      3   1.74585E+05   1.96698E+05  HDI003D-14-14-16CCC3
 HD   I      1   2.06415E+05   1.66732E+05  HDI001D-15-15-16CBB1
 HD   I      2   2.06415E+05   1.66732E+05  HDI002D-15-15-16CBB2
 HD   I      3   2.06415E+05   1.66732E+05  HDI003D-15-15-16CBB3
 HD   I      1   2.00772E+05   1.45509E+05  HDI001D-16-15-05CBC1
 HD   I      2   2.00772E+05   1.45509E+05  HDI002D-16-15-05CBC2
 HD   I      3   2.00772E+05   1.45509E+05  HDI003D-16-15-05CBC3

 OBS2BAS7 -- HEAD OBSERVATIONS, VERSION 2.0, 2/28/2006
 INPUT READ FROM UNIT   8
 # Tucson Update 1940-2011 Head Observation File
 # HOB Package with observed heads 1940-2011
 # Fall 2009 & Spring 2010 observations edited out

 NUMBER OF HEADS....................................: 8388
   NUMBER OF MULTILAYER HEADS.......................: 2556
   MAXIMUM NUMBER OF LAYERS FOR MULTILAYER HEADS....:    3
 HEAD OBSERVATIONS WILL BE SAVED ON UNIT............:   34
 SIMULATED EQUIVALENT HEAD AT DRY CELLS WILL BE:   -666.000    

 OBSERVED HEAD DATA -- TIME OFFSETS ARE MULTIPLIED BY:   1.0000    

                    REFER.
       OBSERVATION  STRESS    TIME
  OBS#    NAME      PERIOD   OFFSET    OBSERVATION
     1 3522-15-337      1    365.0       2965.    
 Observation within a steady-state time step has been moved to the end of the time step.
     2 3489-20-74       1    365.0       2968.    
 Observation within a steady-state time step has been moved to the end of the time step.
     3 3485-19-34       1    365.0       2966.    
 Observation within a steady-state time step has been moved to the end of the time step.
     4 3465-20-300      1    365.0       2968.    
 Observation within a steady-state time step has been moved to the end of the time step.
     5 3415-15-154      1    365.0       2955.    
 Observation within a steady-state time step has been moved to the end of the time step.
     6 3314-43-7        1    365.0       2830.    
 Observation within a steady-state time step has been moved to the end of the time step.
     7 3241-5-82        1    365.0       2709.    
 Observation within a steady-state time step has been moved to the end of the time step.
     8 3384-7-41        7    41.00       1626.    
     9 3384-12-10      12    10.00       1613.    
    10 3384-16-340     16    340.0       1572.    
    11 3384-21-335     21    335.0       1549.    
    12 3384-27-13      27    13.00       1531.    
    13 3384-32-5       32    5.000       1517.    
    14 3384-36-349     36    349.0       1499.    
    15 3400-55-321     55    321.0       1558.    
    16 3400-60-312     60    312.0       1568.    
    17 3400-65-363     65    363.0       1583.    
    18 3400-71-349     71    349.0       1600.    
    19 3401-55-321     55    321.0       1613.    
    20 3401-60-312     60    312.0       1621.    
    21 3401-65-363     65    363.0       1631.    
    22 3401-71-349     71    349.0       1650.    
    23 3397-11-313     11    313.0       1674.    
    24 3361-21-339     21    339.0       1555.    
    25 3361-32-5       32    5.000       1524.    
    26 3346-16-340     16    340.0       1573.    
    27 3346-21-339     21    339.0       1537.    
    28 3346-32-5       32    5.000       1495.    
    29 3346-37-349     37    349.0       1474.    
    30 3346-49-54      49    54.00       1506.    
    31 3346-60-319     60    319.0       1517.    
    32 3346-65-298     65    298.0       1529.    
    33 3346-71-13      71    13.00       1544.    
    34 3376-6-41        6    41.00       1665.    
    35 3376-12-46      12    46.00       1648.    
    36 3376-16-362     16    362.0       1635.    
    37 3376-21-336     21    336.0       1591.    
    38 3376-27-12      27    12.00       1561.    
    39 3376-38-1       38    1.000       1527.    
    40 3327-56-26      56    26.00       1579.    
    41 3327-66-18      66    18.00       1601.    
    42 3306-1-32        1    32.00       1688.    
 Observation within a steady-state time step has been moved to the end of the time step.
    43 3299-38-41      38    41.00       1546.    
    44 3311-15-337     15    337.0       2982.    
    45 3313-32-7       32    7.000       1579.    
    46 3313-38-1       38    1.000       1560.    
    47 3313-56-26      56    26.00       1601.    
    48 3313-66-18      66    18.00       1626.    
    49 3303-56-26      56    26.00       1600.    
    50 3303-66-18      66    18.00       1624.    
    51 3302-12-32      12    32.00       1680.    
    52 3302-56-26      56    26.00       1606.    
    53 3302-66-18      66    18.00       1633.    
    54 3320-2-305       2    305.0       1680.    
    55 3324-26-339     26    339.0       1550.    
    56 3312-16-335     16    335.0       1604.    
    57 3312-21-335     21    335.0       1576.    
    58 3312-32-1       32    1.000       1537.    
    59 3312-36-51      36    51.00       1523.    
    60 3294-1-60        1    60.00       1692.    
 Observation within a steady-state time step has been moved to the end of the time step.
    61 3291-16-362     16    362.0       1650.    
    62 3288-12-32      12    32.00       1671.    
    63 3288-21-335     21    335.0       1622.    
    64 3288-32-7       32    7.000       1602.    
    65 3282-21-336     21    336.0       1628.    
    66 3282-32-7       32    7.000       1604.    
    67 3282-38-10      38    10.00       1584.    
    68 3285-5-179       5    179.0       1699.    
    69 3285-11-25      11    25.00       1690.    
    70 3285-16-341     16    341.0       1666.    
    71 3285-21-336     21    336.0       1639.    
    72 3279-12-39      12    39.00       1679.    
    73 3279-16-362     16    362.0       1650.    
    74 3279-21-341     21    341.0       1639.    
    75 3279-27-28      27    28.00       1624.    
    76 3281-21-336     21    336.0       1635.    
    77 3281-37-350     37    350.0       1573.    
    78 3268-21-274     21    274.0       1652.    
    79 3268-38-6       38    6.000       1576.    
    80 3259-16-348     16    348.0       1684.    
     MULTIPLE LAYERS AND PROPORTIONS :    1, 0.19       2, 0.69       3, 0.12
    81 3259-32-7       32    7.000       1619.    
     MULTIPLE LAYERS AND PROPORTIONS :    2, 0.69       3, 0.31
    82 3259-36-350     36    350.0       1606.    
     MULTIPLE LAYERS AND PROPORTIONS :    2, 0.88       3, 0.12
    83 3237-1-365       1    365.0       1723.    
 Observation within a steady-state time step has been moved to the end of the time step.
    84 3237-3-355       3    355.0       1721.    
    85 3237-12-59      12    59.00       1713.    
    86 3234-6-284       6    284.0       1719.    
    87 3234-12-32      12    32.00       1710.    
    88 3234-16-348     16    348.0       1689.    
    89 3231-21-341     21    341.0       1661.    
     MULTIPLE LAYERS AND PROPORTIONS :    2, 0.28       3, 0.72
    90 3231-27-12      27    12.00       1642.    
     MULTIPLE LAYERS AND PROPORTIONS :    2, 0.28       3, 0.72
    91 3231-38-3       38    3.000       1595.    
     MULTIPLE LAYERS AND PROPORTIONS :    2, 0.28       3, 0.72
    92 3382-48-363     48    363.0       1604.    
    93 3383-48-363     48    363.0       1619.    
    94 3363-56-23      56    23.00       1632.    
    95 3363-66-18      66    18.00       1646.    
    96 3364-11-342     11    342.0       1694.    
     MULTIPLE LAYERS AND PROPORTIONS :    1, 0.15       2, 0.85
    97 3364-16-362     16    362.0       1671.    
     MULTIPLE LAYERS AND PROPORTIONS :    1, 0.15       2, 0.85
    98 3364-21-341     21    341.0       1646.    
     MULTIPLE LAYERS AND PROPORTIONS :    1, 0.15       2, 0.85
    99 3364-27-28      27    28.00       1639.    
   100 3364-32-4       32    4.000       1621.    
   101 3364-36-349     36    349.0       1617.    
   102 3364-43-19      43    19.00       1616.    
   103 3364-49-54      49    54.00       1622.    
   104 3364-56-25      56    25.00       1626.    
   105 3364-60-319     60    319.0       1628.    
   106 3364-65-298     65    298.0       1635.    
     MULTIPLE LAYERS AND PROPORTIONS :    1, 0.15       2, 0.85
   107 3364-71-13      71    13.00       1648.    
     MULTIPLE LAYERS AND PROPORTIONS :    1, 0.15       2, 0.85
   108 3364-71-365     71    365.0       1652.    
     MULTIPLE LAYERS AND PROPORTIONS :    1, 0.15       2, 0.85
   109 3370-56-25      56    25.00       1623.    
   110 3370-61-72      61    72.00       1628.    
   111 3370-66-18      66    18.00       1637.    
   112 3353-21-335     21    335.0       1659.    
   113 3353-27-12      27    12.00       1646.    
   114 3353-56-25      56    25.00       1627.    
   115 3353-66-18      66    18.00       1635.    
   116 3351-56-25      56    25.00       1628.    
   117 3351-61-72      61    72.00       1629.    
   118 3351-66-18      66    18.00       1639.    
   119 3310-56-23      56    23.00       1643.    
   120 3307-56-23      56    23.00       1644.    
   121 3307-61-73      61    73.00       1649.    
   122 3307-66-20      66    20.00       1676.    
   123 3292-56-25      56    25.00       1630.    
     MULTIPLE LAYERS AND PROPORTIONS :    2, 0.35       3, 0.65
   124 3292-61-73      61    73.00       1638.    
     MULTIPLE LAYERS AND PROPORTIONS :    2, 0.35       3, 0.65
   125 3292-66-19      66    19.00       1663.    
     MULTIPLE LAYERS AND PROPORTIONS :    2, 0.35       3, 0.65
   126 3278-11-296     11    296.0       1706.    
   127 3278-16-343     16    343.0       1693.    
   128 3278-21-340     21    340.0       1664.    
   129 3278-27-12      27    12.00       1658.    
   130 3278-32-4       32    4.000       1650.    
   131 3278-36-350     36    350.0       1648.    
   132 3278-43-19      43    19.00       1650.    
   133 3278-49-54      49    54.00       1656.    
   134 3278-56-25      56    25.00       1656.    
   135 3278-60-319     60    319.0       1660.    
   136 3278-65-301     65    301.0       1670.    
   137 3278-71-13      71    13.00       1684.    
   138 3278-71-365     71    365.0       1686.    
   139 3290-56-25      56    25.00       1638.    
     MULTIPLE LAYERS AND PROPORTIONS :    2, 0.84       3, 0.16
   140 3290-61-73      61    73.00       1647.    
     MULTIPLE LAYERS AND PROPORTIONS :    2, 0.84       3, 0.16
   141 3290-66-19      66    19.00       1671.    
     MULTIPLE LAYERS AND PROPORTIONS :    2, 0.84       3, 0.16
   142 3250-12-32      12    32.00       1737.    
   143 3250-16-363     16    363.0       1711.    
   144 3250-21-335     21    335.0       1688.    
   145 3250-32-7       32    7.000       1652.    
   146 3250-36-352     36    352.0       1632.    
   147 3308-56-25      56    25.00       1672.    
     MULTIPLE LAYERS AND PROPORTIONS :    2, 0.78       3, 0.22
   148 3308-61-73      61    73.00       1673.    
     MULTIPLE LAYERS AND PROPORTIONS :    2, 0.78       3, 0.22
   149 3308-66-20      66    20.00       1698.    
     MULTIPLE LAYERS AND PROPORTIONS :    2, 0.78       3, 0.22
   150 3249-16-363     16    363.0       1709.    
   151 3249-21-340     21    340.0       1688.    
   152 3249-36-352     36    352.0       1660.    
   153 3249-56-25      56    25.00       1688.    
   154 3249-61-73      61    73.00       1698.    
   155 3233-3-355       3    355.0       1744.    
   156 3233-6-341       6    341.0       1743.    
   157 3233-12-59      12    59.00       1737.    
   158 3233-16-311     16    311.0       1725.    
   159 3230-16-348     16    348.0       1722.    
     MULTIPLE LAYERS AND PROPORTIONS :    1, 0.45       2, 0.55
   160 3230-21-340     21    340.0       1705.    
     MULTIPLE LAYERS AND PROPORTIONS :    1, 0.45       2, 0.55
   161 3230-27-1       27    1.000       1694.    
     MULTIPLE LAYERS AND PROPORTIONS :    1, 0.45       2, 0.55
   162 3230-32-7       32    7.000       1702.    
     MULTIPLE LAYERS AND PROPORTIONS :    1, 0.45       2, 0.55
   163 3230-36-352     36    352.0       1682.    
   164 3230-56-25      56    25.00       1711.    
   165 3230-61-72      61    72.00       1716.    
   166 3229-17-4       17    4.000       1729.    
     MULTIPLE LAYERS AND PROPORTIONS :    1, 0.89       2, 0.11
   167 3247-61-73      61    73.00       1711.    
   168 3247-66-20      66    20.00       1715.    
   169 3368-56-25      56    25.00       1668.    
   170 3333-12-10      12    10.00       1744.    
   171 3333-16-343     16    343.0       1741.    
   172 3333-32-85      32    85.00       1693.    
   173 3333-35-53      35    53.00       1685.    
   174 3332-49-54      49    54.00       1671.    
   175 3332-56-26      56    26.00       1674.    
   176 3332-60-319     60    319.0       1679.    
   177 3332-65-298     65    298.0       1687.    
   178 3332-71-13      71    13.00       1699.    
   179 3332-71-365     71    365.0       1701.    
   180 3330-56-25      56    25.00       1659.    
   181 3315-48-300     48    300.0       1659.    
   182 3315-55-321     55    321.0       1664.    
   183 3315-60-312     60    312.0       1666.    
   184 3315-65-363     65    363.0       1676.    
   185 3315-71-351     71    351.0       1691.    
   186 3316-48-300     48    300.0       1658.    
   187 3316-55-321     55    321.0       1663.    
   188 3316-60-312     60    312.0       1666.    
   189 3316-65-363     65    363.0       1677.    
   190 3316-71-351     71    351.0       1692.    
   191 3284-56-25      56    25.00       1689.    
   192 3275-38-12      38    12.00       1709.    
   193 3287-38-24      38    24.00       1676.    
   194 3265-48-364     48    300.0       1671.    
   195 3265-56-25      56    25.00       1676.    
     MULTIPLE LAYERS AND PROPORTIONS :    2, 0.47       3, 0.53
   196 3228-56-20      56    20.00       1682.    
     MULTIPLE LAYERS AND PROPORTIONS :    1, 0.16       2, 0.84
   197 3228-61-73      61    73.00       1697.    
     MULTIPLE LAYERS AND PROPORTIONS :    1, 0.16       2, 0.84
   198 3228-66-19      66    19.00       1727.    
     MULTIPLE LAYERS AND PROPORTIONS :    1, 0.16       2, 0.84
   199 3347-20-74      20    74.00       2968.    
   200 3347-26-157     37    33.00       2967.    
   201 3347-37-33      37    33.00       2963.    
   202 3347-43-82      43    82.00       2967.    
   203 3347-48-336     48    336.0       2971.    
   204 3347-56-23      56    23.00       2969.    
   205 3347-61-62      61    62.00       2971.    
   206 3347-65-299     65    299.0       2969.    
   207 3347-71-12      71    12.00       2966.    
   208 3347-71-365     71    365.0       2966.    
   209 3378-15-337     15    337.0       2965.    
   210 3378-26-127     26    112.0       2971.    
   211 3378-33-312     33    312.0       2954.    
   212 3378-43-82      43    82.00       2971.    
   213 3378-48-337     48    337.0       2976.    
   214 3378-56-23      56    23.00       2976.    
   215 3378-61-62      61    62.00       2976.    
   216 3378-66-18      66    18.00       2972.    
   217 3336-71-63      71    63.00       2981.    
   218 3343-19-34      19    34.00       2966.    
   219 3343-26-121     26    121.0       2966.    
   220 3343-33-311     33    311.0       2952.    
   221 3343-43-82      43    82.00       2975.    
   222 3343-48-336     48    336.0       2978.    
   223 3343-56-25      56    25.00       2977.    
   224 3343-61-62      61    62.00       2975.    
   225 3343-66-24      66    24.00       2971.    
   226 3343-71-63      71    63.00       2963.    
   227 3322-20-300     20    300.0       2968.    
   228 3322-26-127     26    127.0       2967.    
   229 3322-48-337     48    337.0       2973.    
   230 3322-56-25      56    25.00       2963.    
   231 3322-61-60      61    60.00       2964.    
   232 3317-43-85      43    85.00       2959.    
   233 3317-56-25      56    25.00       2964.    
   234 3317-61-60      61    60.00       2961.    
   235 3317-66-27      66    27.00       2959.    
   236 3317-71-64      71    64.00       2962.    
   237 3300-56-26      56    26.00       2995.    
   238 3289-56-26      56    26.00       3009.    
   239 3289-61-65      61    65.00       2998.    
   240 3276-56-26      56    26.00       3018.    
   241 3270-56-26      56    26.00       2964.    
   242 3272-15-154     15    154.0       2955.    
   243 3272-26-125     26    125.0       2957.    
   244 3272-37-36      37    36.00       2947.    
   245 3272-43-27      43    27.00       2962.    
   246 3272-48-336     48    336.0       2970.    
   247 3272-56-26      56    26.00       2966.    
   248 3272-61-60      61    60.00       2962.    
   249 3272-71-12      71    12.00       2947.    
   250 3266-56-26      56    26.00       2956.    
   251 3260-33-313     33    313.0       3027.    
   252 3260-48-334     48    334.0       3050.    
   253 3260-56-26      56    26.00       3044.    
   254 3222-38-6       38    6.000       1714.    
   255 3213-12-324     12    324.0       1725.    
   256 3213-16-335     16    335.0       1716.    
   257 3213-21-335     21    335.0       1699.    
   258 3213-32-7       32    7.000       1680.    
   259 3213-38-10      38    10.00       1660.    
   260 3213-56-19      56    19.00       1689.    
   261 3205-2-230       2    230.0       1730.    
     MULTIPLE LAYERS AND PROPORTIONS :    1, 0.18       2, 0.82
   262 3205-22-37      22    37.00       1683.    
     MULTIPLE LAYERS AND PROPORTIONS :    1, 0.18       2, 0.82
   263 3191-2-188       2    188.0       1745.    
   264 3178-17-4       17    4.000       1713.    
   265 3178-22-37      22    37.00       1688.    
   266 3178-32-85      32    85.00       1649.    
   267 3178-36-65      36    65.00       1610.    
   268 3178-42-349     42    349.0       1623.    
   269 3178-48-341     48    341.0       1643.    
   270 3178-56-23      56    23.00       1655.    
   271 3178-60-319     60    319.0       1671.    
   272 3177-17-4       17    4.000       1713.    
     MULTIPLE LAYERS AND PROPORTIONS :    1, 0.18       2, 0.82
   273 3176-11-297     11    297.0       1743.    
     MULTIPLE LAYERS AND PROPORTIONS :    1, 0.31       2, 0.69
   274 3176-16-342     16    342.0       1718.    
     MULTIPLE LAYERS AND PROPORTIONS :    1, 0.31       2, 0.69
   275 3176-21-342     21    342.0       1691.    
     MULTIPLE LAYERS AND PROPORTIONS :    1, 0.31       2, 0.69
   276 3176-32-7       32    7.000       1633.    
   277 3176-34-339     34    339.0       1628.    
   278 3174-21-335     21    335.0       1695.    
   279 3174-56-19      56    19.00       1680.    
   280 3174-61-60      61    60.00       1690.    
   281 3174-66-24      66    24.00       1723.    
   282 3188-2-335       2    335.0       1755.    
   283 3188-6-341       6    341.0       1754.    
   284 3188-10-350     10    350.0       1750.    
   285 3199-38-6       38    6.000       1636.    
     MULTIPLE LAYERS AND PROPORTIONS :    2, 0.82       3, 0.18
   286 3199-48-337     48    337.0       1674.    
     MULTIPLE LAYERS AND PROPORTIONS :    2, 0.82       3, 0.18
   287 3199-61-60      61    60.00       1705.    
     MULTIPLE LAYERS AND PROPORTIONS :    2, 0.82       3, 0.18
   288 3175-48-337     48    337.0       1664.    
   289 3175-56-19      56    19.00       1686.    
   290 3175-66-24      66    24.00       1729.    
   291 3196-56-19      56    19.00       1688.    
   292 3171-21-335     21    335.0       1716.    
   293 3171-26-313     26    313.0       1672.    
   294 3171-48-337     48    337.0       1698.    
   295 3173-48-337     48    337.0       1672.    
   296 3173-56-19      56    19.00       1692.    
   297 3173-61-60      61    60.00       1701.    
   298 3173-66-20      66    20.00       1730.    
   299 3172-56-19      56    19.00       1682.    
   300 3172-61-60      61    60.00       1691.    
   301 3172-66-24      66    24.00       1723.    
   302 3163-12-91      12    91.00       1748.    
   303 3163-21-335     21    335.0       1701.    
   304 3197-42-351     42    351.0       1684.    
     MULTIPLE LAYERS AND PROPORTIONS :    2, 0.43       3, 0.57
   305 3197-48-348     48    348.0       1700.    
     MULTIPLE LAYERS AND PROPORTIONS :    2, 0.43       3, 0.57
   306 3197-56-4       56    4.000       1699.    
     MULTIPLE LAYERS AND PROPORTIONS :    2, 0.43       3, 0.57
   307 3197-61-5       61    5.000       1719.    
     MULTIPLE LAYERS AND PROPORTIONS :    2, 0.43       3, 0.57
   308 3197-65-361     65    361.0       1745.    
     MULTIPLE LAYERS AND PROPORTIONS :    2, 0.43       3, 0.57
   309 3197-71-355     71    355.0       1748.    
     MULTIPLE LAYERS AND PROPORTIONS :    2, 0.43       3, 0.57
   310 3170-16-348     16    348.0       1732.    
     MULTIPLE LAYERS AND PROPORTIONS :    1, 0.13       2, 0.87
   311 3170-21-342     21    342.0       1703.    
   312 3170-38-6       38    6.000       1681.    
   313 3170-42-351     42    351.0       1737.    
   314 3170-48-348     48    348.0       1694.    
   315 3170-55-354     55    354.0       1703.    
   316 3170-61-5       61    5.000       1725.    
   317 3170-65-361     65    361.0       1751.    
   318 3170-71-355     71    355.0       1754.    
   319 3139-21-343     21    343.0       1698.    
   320 3139-71-355     71    355.0       1747.    
   321 3143-17-5       17    5.000       1732.    
   322 3143-22-37      22    37.00       1708.    
   323 3143-27-31      27    31.00       1695.    
   324 3143-55-354     55    354.0       1694.    
   325 3143-61-5       61    5.000       1720.    
   326 3143-65-361     65    361.0       1757.    
   327 3143-71-355     71    355.0       1760.    
   328 3166-1-1         1    1.000       1748.    
 Observation within a steady-state time step has been moved to the end of the time step.
     MULTIPLE LAYERS AND PROPORTIONS :    2, 0.54       3, 0.46
   329 3166-11-335     11    335.0       1738.    
     MULTIPLE LAYERS AND PROPORTIONS :    2, 0.54       3, 0.46
   330 3166-21-335     21    335.0       1680.    
     MULTIPLE LAYERS AND PROPORTIONS :    2, 0.54       3, 0.46
   331 3100-16-338     16    338.0       1730.    
   332 3100-21-335     21    335.0       1703.    
     MULTIPLE LAYERS AND PROPORTIONS :    2, 0.76       3, 0.24
   333 3100-43-60      43    60.00       1625.    
   334 3100-55-354     55    354.0       1652.    
   335 3100-61-5       61    5.000       1659.    
     MULTIPLE LAYERS AND PROPORTIONS :    2, 0.76       3, 0.24
   336 3100-66-20      66    20.00       1692.    
     MULTIPLE LAYERS AND PROPORTIONS :    2, 0.76       3, 0.24
   337 3100-71-355     71    355.0       1709.    
     MULTIPLE LAYERS AND PROPORTIONS :    2, 0.76       3, 0.24
   338 2939-42-351     42    351.0       1635.    
   339 2939-61-5       61    5.000       1669.    
   340 2939-70-352     70    352.0       1725.    
   341 2939-71-355     71    355.0       1727.    
   342 3099-21-335     21    335.0       1697.    
     MULTIPLE LAYERS AND PROPORTIONS :    2, 0.38       3, 0.62
   343 3099-61-5       61    5.000       1665.    
     MULTIPLE LAYERS AND PROPORTIONS :    2, 0.38       3, 0.62
   344 3099-66-20      66    20.00       1698.    
     MULTIPLE LAYERS AND PROPORTIONS :    2, 0.38       3, 0.62
   345 3099-71-355     71    355.0       1723.    
     MULTIPLE LAYERS AND PROPORTIONS :    2, 0.38       3, 0.62
   346 3113-1-59        1    59.00       1773.    
 Observation within a steady-state time step has been moved to the end of the time step.
   347 3113-6-341       6    341.0       1768.    
   348 3113-12-362     12    362.0       1752.    
   349 3113-22-37      22    37.00       1703.    
   350 3113-27-31      27    31.00       1697.    
   351 3113-37-341     37    341.0       1653.    
   352 3113-42-349     42    349.0       1684.    
   353 3113-48-341     48    341.0       1664.    
   354 3113-55-354     55    354.0       1694.    
   355 3113-60-319     60    319.0       1716.    
   356 3113-65-298     65    298.0       1744.    
   357 3113-71-355     71    355.0       1757.    
   358 3097-12-170     12    170.0       1744.    
   359 3097-17-5       17    5.000       1723.    
   360 3097-42-351     42    351.0       1664.    
   361 3097-48-348     48    348.0       1679.    
   362 3097-55-354     55    354.0       1696.    
   363 3097-61-5       61    5.000       1718.    
   364 3097-65-361     65    361.0       1750.    
   365 3097-71-355     71    355.0       1760.    
   366 3095-42-351     42    351.0       1666.    
   367 3095-48-348     48    348.0       1682.    
   368 3095-55-354     55    354.0       1698.    
   369 3095-61-5       61    5.000       1720.    
   370 3095-65-361     65    361.0       1752.    
   371 3095-71-355     71    355.0       1761.    
   372 3096-8-283       8    283.0       1773.    
     MULTIPLE LAYERS AND PROPORTIONS :    1, 0.20       2, 0.80
   373 3096-17-5       17    5.000       1736.    
     MULTIPLE LAYERS AND PROPORTIONS :    1, 0.20       2, 0.80
   374 3096-21-335     21    335.0       1708.    
   375 3135-8-282       8    282.0       1775.    
     MULTIPLE LAYERS AND PROPORTIONS :    1, 0.11       2, 0.89
   376 3135-11-355     11    355.0       1766.    
     MULTIPLE LAYERS AND PROPORTIONS :    1, 0.11       2, 0.89
   377 3135-16-349     16    349.0       1739.    
     MULTIPLE LAYERS AND PROPORTIONS :    1, 0.11       2, 0.89
   378 3135-21-312     21    312.0       1708.    
   379 3135-26-292     26    292.0       1680.    
   380 3135-38-5       38    5.000       1641.    
   381 3135-48-337     48    337.0       1678.    
   382 3135-56-19      56    19.00       1700.    
   383 3135-61-60      61    60.00       1717.    
   384 3121-55-354     55    354.0       1713.    
   385 3121-61-5       61    5.000       1724.    
   386 3121-66-20      66    20.00       1760.    
   387 3121-71-365     71    365.0       1772.    
   388 3059-10-57      10    57.00       1779.    
   389 3059-17-5       17    5.000       1744.    
   390 3059-27-31      27    31.00       1693.    
   391 3059-37-33      37    33.00       1717.    
   392 3059-42-349     42    349.0       1681.    
   393 3059-48-342     48    342.0       1700.    
   394 3059-56-20      56    20.00       1720.    
   395 3059-60-319     60    319.0       1742.    
   396 3059-65-301     65    301.0       1777.    
   397 3059-71-365     71    365.0       1787.    
   398 3078-21-335     21    335.0       1709.    
   399 3080-11-297     11    297.0       1762.    
     MULTIPLE LAYERS AND PROPORTIONS :    1, 0.12       2, 0.88
   400 3075-56-20      56    20.00       1716.    
   401 3089-2-339       2    339.0       1774.    
   402 3089-6-341       6    341.0       1772.    
   403 3089-12-362     12    362.0       1763.    
   404 3089-16-313     16    313.0       1745.    
   405 3089-42-351     42    351.0       1693.    
   406 3089-65-361     65    361.0       1743.    
   407 3089-71-355     71    355.0       1755.    
   408 3053-11-297     11    297.0       1767.    
   409 3053-16-349     16    349.0       1741.    
   410 3053-22-37      22    37.00       1710.    
   411 3053-32-85      32    85.00       1668.    
   412 3053-42-351     42    351.0       1660.    
   413 3053-48-348     48    348.0       1676.    
   414 3053-55-353     55    353.0       1689.    
   415 3053-61-5       61    5.000       1706.    
   416 3053-65-361     65    361.0       1735.    
   417 3053-71-355     71    355.0       1752.    
   418 3050-55-353     55    353.0       1689.    
   419 3050-61-5       61    5.000       1706.    
   420 3050-65-361     65    361.0       1735.    
   421 3050-71-355     71    355.0       1752.    
   422 3076-37-33      37    33.00       1618.    
   423 3076-42-349     42    349.0       1656.    
   424 3076-48-342     48    342.0       1676.    
   425 3076-56-23      56    23.00       1695.    
   426 3076-61-60      61    60.00       1701.    
   427 3076-66-24      66    24.00       1742.    
   428 3077-55-354     55    354.0       1659.    
   429 3077-61-5       61    5.000       1665.    
   430 3077-66-20      66    20.00       1690.    
   431 3077-71-355     71    355.0       1718.    
   432 3065-48-348     48    348.0       1663.    
     MULTIPLE LAYERS AND PROPORTIONS :    2, 0.27       3, 0.73
   433 3021-1-107       1    107.0       1784.    
 Observation within a steady-state time step has been moved to the end of the time step.
   434 3021-7-3         7    3.000       1782.    
   435 3020-7-3         7    3.000       1781.    
   436 3020-12-59      12    59.00       1775.    
   437 3020-16-314     16    314.0       1755.    
   438 3020-22-37      22    37.00       1731.    
   439 3020-27-31      27    31.00       1697.    
   440 2989-12-59      12    59.00       1780.    
   441 2995-16-313     16    313.0       1748.    
   442 2995-22-37      22    37.00       1734.    
   443 2995-27-31      27    31.00       1719.    
   444 2995-32-85      32    85.00       1723.    
   445 3201-48-300     48    300.0       1676.    
   446 3201-55-321     55    321.0       1685.    
   447 3201-60-312     60    312.0       1692.    
   448 3201-65-363     65    363.0       1706.    
   449 3201-71-10      71    10.00       1726.    
   450 3202-48-300     48    300.0       1678.    
   451 3202-55-321     55    321.0       1687.    
   452 3202-60-312     60    312.0       1696.    
   453 3202-65-363     65    363.0       1720.    
   454 3202-71-10      71    10.00       1745.    
   455 3200-21-335     21    335.0       1763.    
   456 3200-32-6       32    6.000       1728.    
   457 3200-36-351     36    351.0       1712.    
   458 3200-49-54      49    54.00       1695.    
   459 3200-56-24      56    24.00       1699.    
   460 3200-60-319     60    319.0       1706.    
   461 3200-65-298     65    298.0       1718.    
   462 3200-71-365     71    365.0       1736.    
   463 3154-1-337       1    337.0       1791.    
 Observation within a steady-state time step has been moved to the end of the time step.
     MULTIPLE LAYERS AND PROPORTIONS :    1, 0.12       2, 0.88
   464 3154-6-286       6    286.0       1782.    
     MULTIPLE LAYERS AND PROPORTIONS :    1, 0.12       2, 0.88
   465 3154-11-298     11    298.0       1778.    
     MULTIPLE LAYERS AND PROPORTIONS :    1, 0.12       2, 0.88
   466 3154-16-358     16    358.0       1742.    
     MULTIPLE LAYERS AND PROPORTIONS :    1, 0.12       2, 0.88
   467 3154-21-343     21    343.0       1712.    
   468 3154-32-85      32    85.00       1660.    
   469 3154-37-33      37    33.00       1649.    
   470 3154-42-349     42    349.0       1651.    
   471 3150-48-337     48    337.0       1681.    
   472 3150-56-23      56    23.00       1704.    
   473 3150-60-319     60    319.0       1720.    
   474 3150-65-298     65    298.0       1752.    
   475 3150-71-11      71    11.00       1775.    
   476 3150-71-365     71    365.0       1776.    
   477 3158-12-85      12    85.00       1766.    
   478 3158-16-342     16    342.0       1740.    
   479 3158-21-346     21    346.0       1712.    
   480 3158-56-25      56    25.00       1700.    
   481 3158-61-55      61    55.00       1720.    
   482 3158-66-19      66    19.00       1753.    
   483 3179-8-1         8    1.000       1777.    
     MULTIPLE LAYERS AND PROPORTIONS :    1, 0.12       2, 0.88
   484 3151-12-33      12    33.00       1773.    
   485 3151-16-342     16    342.0       1740.    
   486 3151-21-346     21    346.0       1717.    
   487 3151-56-23      56    23.00       1705.    
   488 3151-61-55      61    55.00       1725.    
   489 3151-66-18      66    18.00       1758.    
   490 3167-34-152     34    152.0       1703.    
   491 3103-38-3       38    3.000       1652.    
   492 3101-66-24      66    24.00       1760.    
     MULTIPLE LAYERS AND PROPORTIONS :    2, 0.76       3, 0.24
   493 3105-8-1         8    1.000       1789.    
     MULTIPLE LAYERS AND PROPORTIONS :    1, 0.19       2, 0.81
   494 3105-56-23      56    23.00       1710.    
   495 3105-61-55      61    55.00       1731.    
   496 3105-66-18      66    18.00       1767.    
   497 3142-12-1       12    1.000       1778.    
     MULTIPLE LAYERS AND PROPORTIONS :    1, 0.43       2, 0.57
   498 3142-16-342     16    342.0       1744.    
     MULTIPLE LAYERS AND PROPORTIONS :    1, 0.43       2, 0.57
   499 3142-56-24      56    24.00       1707.    
   500 3142-61-55      61    55.00       1726.    
   501 3142-66-19      66    19.00       1759.    
   502 3138-21-346     21    346.0       1718.    
   503 3138-56-24      56    24.00       1708.    
   504 3138-61-55      61    55.00       1727.    
   505 3138-66-19      66    19.00       1760.    
   506 3119-48-337     48    337.0       1687.    
   507 3119-56-23      56    23.00       1712.    
   508 3119-61-60      61    60.00       1732.    
   509 3119-66-18      66    18.00       1768.    
   510 3130-2-305       2    305.0       1828.    
   511 3108-8-32        8    32.00       1790.    
     MULTIPLE LAYERS AND PROPORTIONS :    1, 0.45       2, 0.55
   512 3104-56-26      56    26.00       1723.    
   513 3104-61-55      61    55.00       1744.    
   514 3104-66-19      66    19.00       1777.    
   515 3102-56-26      56    26.00       1724.    
     MULTIPLE LAYERS AND PROPORTIONS :    2, 0.93       3, 0.07
   516 3102-61-55      61    55.00       1744.    
     MULTIPLE LAYERS AND PROPORTIONS :    2, 0.93       3, 0.07
   517 3102-66-19      66    19.00       1776.    
     MULTIPLE LAYERS AND PROPORTIONS :    2, 0.93       3, 0.07
   518 3140-48-300     48    300.0       1690.    
   519 3141-48-300     48    300.0       1693.    
   520 3061-66-19      66    19.00       1799.    
     MULTIPLE LAYERS AND PROPORTIONS :    2, 0.66       3, 0.34
   521 3085-1-337       1    337.0       1814.    
 Observation within a steady-state time step has been moved to the end of the time step.
     MULTIPLE LAYERS AND PROPORTIONS :    1, 0.27       2, 0.57       3, 0.16
   522 3085-6-286       6    286.0       1805.    
     MULTIPLE LAYERS AND PROPORTIONS :    1, 0.27       2, 0.57       3, 0.16
   523 3085-11-361     11    361.0       1794.    
     MULTIPLE LAYERS AND PROPORTIONS :    1, 0.27       2, 0.57       3, 0.16
   524 3085-16-350     16    350.0       1764.    
     MULTIPLE LAYERS AND PROPORTIONS :    1, 0.27       2, 0.57       3, 0.16
   525 3085-21-346     21    346.0       1739.    
     MULTIPLE LAYERS AND PROPORTIONS :    2, 0.84       3, 0.16
   526 3064-56-25      56    25.00       1746.    
   527 3083-56-23      56    23.00       1725.    
     MULTIPLE LAYERS AND PROPORTIONS :    2, 0.60       3, 0.40
   528 3083-61-55      61    55.00       1747.    
     MULTIPLE LAYERS AND PROPORTIONS :    2, 0.60       3, 0.40
   529 3083-66-18      66    18.00       1785.    
     MULTIPLE LAYERS AND PROPORTIONS :    2, 0.60       3, 0.40
   530 3084-10-60      10    60.00       1787.    
     MULTIPLE LAYERS AND PROPORTIONS :    1, 0.15       2, 0.85
   531 3084-48-341     48    341.0       1690.    
   532 3084-56-23      56    23.00       1716.    
   533 3084-61-55      61    55.00       1737.    
   534 3084-66-18      66    18.00       1775.    
   535 3081-48-341     48    341.0       1690.    
   536 3081-56-23      56    23.00       1714.    
   537 3081-61-55      61    55.00       1736.    
   538 3081-66-18      66    18.00       1774.    
   539 3079-1-365       1    365.0       1791.    
 Observation within a steady-state time step has been moved to the end of the time step.
   540 3058-48-337     48    337.0       1697.    
   541 3058-56-23      56    23.00       1722.    
   542 3058-61-55      61    55.00       1745.    
   543 3058-66-18      66    18.00       1782.    
   544 3086-12-247     12    247.0       1778.    
     MULTIPLE LAYERS AND PROPORTIONS :    1, 0.43       2, 0.57
   545 3107-1-365       1    365.0       1784.    
 Observation within a steady-state time step has been moved to the end of the time step.
   546 3107-11-334     11    334.0       1774.    
   547 3040-10-32      10    32.00       1777.    
   548 3017-71-5       71    5.000       1785.    
   549 3017-71-365     71    365.0       1787.    
   550 3015-55-354     55    354.0       1715.    
   551 3015-71-5       71    5.000       1790.    
   552 3015-71-365     71    365.0       1792.    
   553 3054-10-32      10    32.00       1780.    
   554 3046-12-247     12    247.0       1759.    
   555 3046-16-350     16    350.0       1748.    
   556 3046-21-343     21    343.0       1714.    
   557 3046-32-8       32    8.000       1684.    
   558 3046-36-87      36    87.00       1671.    
   559 3036-11-18      11    18.00       1788.    
     MULTIPLE LAYERS AND PROPORTIONS :    1, 0.22       2, 0.78
   560 3036-16-350     16    350.0       1755.    
     MULTIPLE LAYERS AND PROPORTIONS :    1, 0.22       2, 0.78
   561 3036-21-335     21    335.0       1722.    
     MULTIPLE LAYERS AND PROPORTIONS :    1, 0.22       2, 0.78
   562 3030-12-247     12    247.0       1770.    
     MULTIPLE LAYERS AND PROPORTIONS :    1, 0.19       2, 0.81
   563 3030-16-350     16    350.0       1757.    
     MULTIPLE LAYERS AND PROPORTIONS :    1, 0.19       2, 0.81
   564 3030-21-346     21    346.0       1725.    
     MULTIPLE LAYERS AND PROPORTIONS :    1, 0.19       2, 0.81
   565 3038-1-337       1    337.0       1816.    
 Observation within a steady-state time step has been moved to the end of the time step.
     MULTIPLE LAYERS AND PROPORTIONS :    1, 0.19       2, 0.77       3, 0.04
   566 3038-6-286       6    286.0       1808.    
     MULTIPLE LAYERS AND PROPORTIONS :    1, 0.19       2, 0.77       3, 0.04
   567 3038-11-338     11    338.0       1796.    
     MULTIPLE LAYERS AND PROPORTIONS :    1, 0.19       2, 0.77       3, 0.04
   568 3038-16-350     16    350.0       1765.    
     MULTIPLE LAYERS AND PROPORTIONS :    1, 0.19       2, 0.77       3, 0.04
   569 3038-21-312     21    312.0       1732.    
     MULTIPLE LAYERS AND PROPORTIONS :    1, 0.19       2, 0.77       3, 0.04
   570 3038-42-349     42    349.0       1678.    
     MULTIPLE LAYERS AND PROPORTIONS :    1, 0.19       2, 0.77       3, 0.04
   571 3035-48-337     48    337.0       1709.    
     MULTIPLE LAYERS AND PROPORTIONS :    2, 0.33       3, 0.67
   572 3035-56-23      56    23.00       1737.    
     MULTIPLE LAYERS AND PROPORTIONS :    2, 0.33       3, 0.67
   573 3035-60-319     60    319.0       1755.    
     MULTIPLE LAYERS AND PROPORTIONS :    2, 0.33       3, 0.67
   574 3035-66-18      66    18.00       1790.    
     MULTIPLE LAYERS AND PROPORTIONS :    2, 0.33       3, 0.67
   575 3035-71-11      71    11.00       1802.    
     MULTIPLE LAYERS AND PROPORTIONS :    2, 0.33       3, 0.67
   576 3035-71-365     71    365.0       1804.    
     MULTIPLE LAYERS AND PROPORTIONS :    2, 0.33       3, 0.67
   577 3007-12-76      12    76.00       1799.    
     MULTIPLE LAYERS AND PROPORTIONS :    1, 0.16       2, 0.76       3, 0.08
   578 3007-48-337     48    337.0       1714.    
     MULTIPLE LAYERS AND PROPORTIONS :    2, 0.93       3, 0.07
   579 3007-56-23      56    23.00       1743.    
     MULTIPLE LAYERS AND PROPORTIONS :    2, 0.93       3, 0.07
   580 3007-61-55      61    55.00       1764.    
   581 3007-66-18      66    18.00       1797.    
   582 3032-10-32      10    32.00       1837.    
     MULTIPLE LAYERS AND PROPORTIONS :    1, 0.10       2, 0.36       3, 0.54
   583 3032-48-337     48    337.0       1721.    
     MULTIPLE LAYERS AND PROPORTIONS :    1, 0.10       2, 0.36       3, 0.54
   584 3032-56-23      56    23.00       1749.    
     MULTIPLE LAYERS AND PROPORTIONS :    1, 0.10       2, 0.36       3, 0.54
   585 3032-61-55      61    55.00       1769.    
     MULTIPLE LAYERS AND PROPORTIONS :    1, 0.10       2, 0.36       3, 0.54
   586 3032-66-27      66    27.00       1792.    
     MULTIPLE LAYERS AND PROPORTIONS :    1, 0.10       2, 0.36       3, 0.54
   587 3006-56-23      56    23.00       1745.    
   588 3006-61-55      61    55.00       1767.    
   589 3006-66-18      66    18.00       1801.    
   590 3005-10-60      10    60.00       1836.    
   591 3005-48-337     48    337.0       1770.    
   592 3005-56-23      56    23.00       1795.    
   593 3005-61-55      61    55.00       1805.    
   594 3005-66-18      66    18.00       1812.    
   595 3002-56-23      56    23.00       1794.    
   596 3002-61-55      61    55.00       1805.    
   597 3002-66-19      66    19.00       1810.    
   598 3182-48-337     48    337.0       1674.    
   599 3182-56-19      56    19.00       1692.    
   600 3182-61-60      61    60.00       1708.    
   601 3182-66-27      66    27.00       1739.    
   602 3155-8-1         8    1.000       1775.    
   603 3155-48-337     48    337.0       1676.    
   604 3155-56-19      56    19.00       1717.    
   605 3155-66-24      66    24.00       1748.    
   606 2695-43-60      43    60.00       1677.    
   607 2695-55-354     55    354.0       1712.    
   608 2695-61-7       61    7.000       1726.    
   609 2695-65-361     65    361.0       1770.    
   610 2695-71-5       71    5.000       1782.    
   611 2695-71-365     71    365.0       1784.    
   612 3037-48-364     48    364.0       1774.    
   613 3009-56-25      56    25.00       1908.    
   614 3009-61-55      61    55.00       1906.    
   615 3001-56-25      56    25.00       1910.    
   616 3001-61-55      61    55.00       1908.    
   617 3004-17-1       17    1.000       2018.    
   618 3004-22-1       22    1.000       2015.    
   619 3004-27-32      27    32.00       2001.    
   620 3004-37-36      37    36.00       2005.    
   621 3004-66-24      66    24.00       2001.    
   622 3004-71-57      71    57.00       1994.    
   623 3010-48-334     48    334.0       2113.    
   624 3010-56-27      56    27.00       2109.    
   625 3039-42-364     42    364.0       2228.    
   626 3039-48-335     48    335.0       2245.    
   627 3039-56-25      56    25.00       2227.    
   628 3019-31-297     31    297.0       2244.    
   629 2997-36-32      36    32.00       2229.    
   630 2997-43-41      43    41.00       2230.    
   631 2997-48-334     48    334.0       2229.    
   632 3012-31-339     31    339.0       2316.    
   633 3016-8-222       8    222.0       2284.    
   634 3016-11-53      11    53.00       2300.    
   635 3014-42-365     42    365.0       2297.    
   636 3014-48-334     48    334.0       2299.    
   637 3014-56-24      56    24.00       2299.    
   638 3014-61-59      61    59.00       2298.    
   639 3014-66-25      66    25.00       2291.    
   640 3014-71-54      71    54.00       2278.    
   641 3013-43-6       43    6.000       2316.    
   642 3013-48-335     48    335.0       2319.    
   643 3013-56-26      56    26.00       2319.    
   644 3013-66-28      66    28.00       2310.    
   645 3041-66-33      66    33.00       2468.    
   646 3041-71-61      71    61.00       2459.    
   647 3055-11-56      11    56.00       2467.    
   648 3055-43-6       43    6.000       2457.    
   649 3055-48-335     48    335.0       2469.    
   650 3055-56-19      56    19.00       2469.    
   651 3251-48-334     48    334.0       3019.    
   652 3246-56-26      56    26.00       2986.    
   653 3248-16-116     16    116.0       2955.    
   654 3248-21-116     21    116.0       2975.    
   655 3248-26-125     26    125.0       2959.    
   656 3248-31-111     31    111.0       2961.    
   657 3248-37-36      37    36.00       2957.    
   658 3248-43-81      43    81.00       2972.    
   659 3248-48-334     48    334.0       2988.    
   660 3248-56-26      56    26.00       2987.    
   661 3248-71-61      71    61.00       2965.    
   662 3242-56-26      56    26.00       2985.    
     MULTIPLE LAYERS AND PROPORTIONS :    2, 0.82       3, 0.18
   663 3241-61-61      61    61.00       2998.    
   664 3241-66-18      66    18.00       2981.    
   665 3241-71-61      71    61.00       3005.    
   666 3235-71-64      71    64.00       3012.    
   667 3221-66-33      66    33.00       2925.    
   668 3262-42-335     42    335.0       2939.    
   669 3262-49-8       49    8.000       2944.    
   670 3262-55-342     55    342.0       2943.    
   671 3262-61-35      61    35.00       2939.    
   672 3262-66-33      66    33.00       2931.    
   673 3262-71-323     71    323.0       2925.    
   674 3256-27-125     27    125.0       2931.    
     MULTIPLE LAYERS AND PROPORTIONS :    2, 0.47       3, 0.53
   675 3256-37-36      37    36.00       2916.    
     MULTIPLE LAYERS AND PROPORTIONS :    2, 0.47       3, 0.53
   676 3256-48-356     48    356.0       2938.    
     MULTIPLE LAYERS AND PROPORTIONS :    2, 0.47       3, 0.53
   677 3256-55-342     55    342.0       2934.    
     MULTIPLE LAYERS AND PROPORTIONS :    2, 0.47       3, 0.53
   678 3256-66-33      66    33.00       2926.    
     MULTIPLE LAYERS AND PROPORTIONS :    2, 0.47       3, 0.53
   679 3256-71-323     71    323.0       2917.    
     MULTIPLE LAYERS AND PROPORTIONS :    2, 0.47       3, 0.53
   680 3252-43-81      43    81.00       2932.    
   681 3252-48-336     48    336.0       2934.    
   682 3252-56-27      56    27.00       2930.    
   683 3252-60-323     60    323.0       2929.    
   684 3252-65-299     65    299.0       2923.    
   685 3252-71-365     71    365.0       2915.    
   686 3253-55-342     55    342.0       2930.    
   687 3253-60-335     60    335.0       2927.    
   688 3253-66-34      66    34.00       2925.    
   689 3253-71-323     71    323.0       2917.    
   690 3263-16-299     16    299.0       2905.    
     MULTIPLE LAYERS AND PROPORTIONS :    2, 0.70       3, 0.30
   691 3263-26-127     26    127.0       2904.    
     MULTIPLE LAYERS AND PROPORTIONS :    2, 0.70       3, 0.30
   692 3263-43-60      43    60.00       2902.    
     MULTIPLE LAYERS AND PROPORTIONS :    2, 0.70       3, 0.30
   693 3263-48-356     48    356.0       2911.    
     MULTIPLE LAYERS AND PROPORTIONS :    2, 0.70       3, 0.30
   694 3263-56-24      56    24.00       2900.    
     MULTIPLE LAYERS AND PROPORTIONS :    2, 0.70       3, 0.30
   695 3263-66-33      66    33.00       2901.    
     MULTIPLE LAYERS AND PROPORTIONS :    2, 0.70       3, 0.30
   696 3263-71-365     71    365.0       2895.    
     MULTIPLE LAYERS AND PROPORTIONS :    2, 0.70       3, 0.30
   697 3224-56-27      56    27.00       2930.    
   698 3209-33-314     33    314.0       2882.    
   699 3210-43-81      43    81.00       2884.    
     MULTIPLE LAYERS AND PROPORTIONS :    2, 0.11       3, 0.89
   700 3210-48-336     48    336.0       2887.    
     MULTIPLE LAYERS AND PROPORTIONS :    2, 0.11       3, 0.89
   701 3210-56-26      56    26.00       2894.    
     MULTIPLE LAYERS AND PROPORTIONS :    2, 0.11       3, 0.89
   702 3195-33-32      33    32.00       2815.    
     MULTIPLE LAYERS AND PROPORTIONS :    2, 0.29       3, 0.71
   703 3180-34-152     34    152.0       2820.    
     MULTIPLE LAYERS AND PROPORTIONS :    2, 0.08       3, 0.92
   704 3184-66-28      66    28.00       2857.    
   705 3184-71-62      71    62.00       2852.    
   706 3186-66-28      66    28.00       2856.    
   707 3186-71-60      71    60.00       2852.    
   708 3183-66-31      66    31.00       2872.    
   709 3207-43-7       43    7.000       2948.    
   710 3207-48-334     48    334.0       2964.    
   711 3207-56-26      56    26.00       2976.    
   712 3190-43-7       43    7.000       2890.    
   713 3190-48-336     48    336.0       2901.    
   714 3190-56-25      56    25.00       2904.    
   715 3194-71-62      71    62.00       2908.    
   716 3192-66-34      66    34.00       2931.    
   717 3192-71-60      71    60.00       2929.    
   718 3187-43-7       43    7.000       2909.    
     MULTIPLE LAYERS AND PROPORTIONS :    2, 0.48       3, 0.52
   719 3187-48-334     48    334.0       2917.    
     MULTIPLE LAYERS AND PROPORTIONS :    2, 0.48       3, 0.52
   720 3203-71-62      71    62.00       2945.    
   721 3165-71-62      71    62.00       2841.    
   722 3148-43-7       43    7.000       2842.    
     MULTIPLE LAYERS AND PROPORTIONS :    2, 0.20       3, 0.80
   723 3157-71-62      71    62.00       2841.    
   724 3152-71-62      71    62.00       2846.    
   725 3169-43-8       43    8.000       2834.    
   726 3169-48-336     48    336.0       2821.    
   727 3169-66-34      66    34.00       2822.    
   728 3169-71-61      71    61.00       2805.    
   729 3168-43-7       43    7.000       2830.    
     MULTIPLE LAYERS AND PROPORTIONS :    2, 0.70       3, 0.30
   730 3168-56-26      56    26.00       2830.    
     MULTIPLE LAYERS AND PROPORTIONS :    2, 0.70       3, 0.30
   731 3168-66-34      66    34.00       2829.    
     MULTIPLE LAYERS AND PROPORTIONS :    2, 0.70       3, 0.30
   732 3156-27-289     27    289.0       2792.    
     MULTIPLE LAYERS AND PROPORTIONS :    2, 0.40       3, 0.60
   733 3144-43-7       43    7.000       2755.    
     MULTIPLE LAYERS AND PROPORTIONS :    2, 0.26       3, 0.74
   734 3144-56-25      56    25.00       2765.    
     MULTIPLE LAYERS AND PROPORTIONS :    2, 0.26       3, 0.74
   735 3144-66-34      66    34.00       2744.    
     MULTIPLE LAYERS AND PROPORTIONS :    2, 0.26       3, 0.74
   736 3144-71-60      71    60.00       2734.    
     MULTIPLE LAYERS AND PROPORTIONS :    2, 0.26       3, 0.74
   737 3110-43-5       43    5.000       2722.    
   738 3110-48-335     48    335.0       2730.    
   739 3136-43-7       43    7.000       2851.    
     MULTIPLE LAYERS AND PROPORTIONS :    2, 0.27       3, 0.73
   740 3136-48-334     48    334.0       2861.    
     MULTIPLE LAYERS AND PROPORTIONS :    2, 0.27       3, 0.73
   741 3136-56-26      56    26.00       2868.    
     MULTIPLE LAYERS AND PROPORTIONS :    2, 0.27       3, 0.73
   742 3136-66-35      66    35.00       2846.    
     MULTIPLE LAYERS AND PROPORTIONS :    2, 0.27       3, 0.73
   743 3136-71-61      71    61.00       2827.    
     MULTIPLE LAYERS AND PROPORTIONS :    2, 0.27       3, 0.73
   744 3093-5-82        5    82.00       2709.    
   745 3093-6-97        6    97.00       2709.    
   746 3093-16-133     16    133.0       2692.    
   747 3093-26-124     26    124.0       2688.    
   748 3093-37-37      37    37.00       2684.    
   749 3093-43-7       43    7.000       2727.    
   750 3094-48-337     48    337.0       2811.    
     MULTIPLE LAYERS AND PROPORTIONS :    2, 0.48       3, 0.52
   751 3094-66-33      66    33.00       2785.    
     MULTIPLE LAYERS AND PROPORTIONS :    2, 0.48       3, 0.52
   752 3094-71-61      71    61.00       2774.    
     MULTIPLE LAYERS AND PROPORTIONS :    2, 0.48       3, 0.52
   753 3057-48-337     48    337.0       2564.    
   754 3057-56-25      56    25.00       2558.    
   755 3011-48-337     48    337.0       2533.    
     MULTIPLE LAYERS AND PROPORTIONS :    2, 0.55       3, 0.45
   756 3011-66-33      66    33.00       2460.    
     MULTIPLE LAYERS AND PROPORTIONS :    2, 0.55       3, 0.45
   757 3011-71-61      71    61.00       2447.    
     MULTIPLE LAYERS AND PROPORTIONS :    2, 0.55       3, 0.45
   758 3026-48-337     48    337.0       2520.    
     MULTIPLE LAYERS AND PROPORTIONS :    2, 0.63       3, 0.37
   759 3026-56-25      56    25.00       2554.    
     MULTIPLE LAYERS AND PROPORTIONS :    2, 0.63       3, 0.37
   760 2999-16-361     16    361.0       2530.    
     MULTIPLE LAYERS AND PROPORTIONS :    2, 0.29       3, 0.71
   761 2999-22-31      22    31.00       2533.    
     MULTIPLE LAYERS AND PROPORTIONS :    2, 0.29       3, 0.71
   762 2999-27-11      27    11.00       2522.    
     MULTIPLE LAYERS AND PROPORTIONS :    2, 0.29       3, 0.71
   763 2999-31-351     31    351.0       2526.    
     MULTIPLE LAYERS AND PROPORTIONS :    2, 0.29       3, 0.71
   764 2999-37-343     37    343.0       2520.    
     MULTIPLE LAYERS AND PROPORTIONS :    2, 0.29       3, 0.71
   765 2999-56-25      56    25.00       2568.    
     MULTIPLE LAYERS AND PROPORTIONS :    2, 0.29       3, 0.71
   766 2999-66-33      66    33.00       2500.    
     MULTIPLE LAYERS AND PROPORTIONS :    2, 0.29       3, 0.71
   767 2999-71-61      71    61.00       2475.    
     MULTIPLE LAYERS AND PROPORTIONS :    2, 0.29       3, 0.71
   768 2994-43-5       43    5.000       2561.    
   769 2994-56-25      56    25.00       2576.    
   770 3029-48-336     48    336.0       2649.    
   771 3029-56-26      56    26.00       2651.    
   772 3029-66-33      66    33.00       2616.    
   773 3008-48-336     48    336.0       2686.    
   774 3008-56-26      56    26.00       2693.    
   775 2963-1-107       1    107.0       1799.    
 Observation within a steady-state time step has been moved to the end of the time step.
   776 2948-17-4       17    4.000       1766.    
   777 2982-48-348     48    348.0       1665.    
   778 2982-55-354     55    354.0       1675.    
   779 2982-61-7       61    7.000       1679.    
   780 2982-66-55      66    55.00       1695.    
   781 2982-71-355     71    355.0       1716.    
   782 2968-71-365     71    365.0       1752.    
   783 2951-42-351     42    351.0       1676.    
   784 2951-48-348     48    348.0       1682.    
   785 2951-55-354     55    354.0       1690.    
   786 2951-61-5       61    5.000       1696.    
   787 2951-66-20      66    20.00       1714.    
   788 2951-71-355     71    355.0       1736.    
   789 2950-12-335     12    335.0       1795.    
   790 2950-55-354     55    354.0       1695.    
   791 2945-1-107       1    107.0       1802.    
 Observation within a steady-state time step has been moved to the end of the time step.
   792 2945-7-3         7    3.000       1799.    
   793 2945-10-320     10    320.0       1798.    
   794 2902-42-351     42    351.0       1680.    
   795 2902-48-348     48    348.0       1690.    
   796 2902-55-354     55    354.0       1697.    
   797 2902-61-5       61    5.000       1703.    
   798 2902-66-20      66    20.00       1715.    
   799 2902-71-355     71    355.0       1732.    
   800 2906-12-332     12    332.0       1816.    
   801 2906-17-4       17    4.000       1787.    
     MULTIPLE LAYERS AND PROPORTIONS :    2, 0.77       3, 0.23
   802 2906-22-34      22    34.00       1763.    
     MULTIPLE LAYERS AND PROPORTIONS :    2, 0.77       3, 0.23
   803 2906-32-85      32    85.00       1709.    
   804 2906-37-33      37    33.00       1693.    
     MULTIPLE LAYERS AND PROPORTIONS :    2, 0.77       3, 0.23
   805 2906-48-365     48    365.0       1698.    
     MULTIPLE LAYERS AND PROPORTIONS :    2, 0.77       3, 0.23
   806 2906-55-354     55    354.0       1704.    
     MULTIPLE LAYERS AND PROPORTIONS :    2, 0.77       3, 0.23
   807 2906-61-5       61    5.000       1712.    
     MULTIPLE LAYERS AND PROPORTIONS :    2, 0.77       3, 0.23
   808 2906-66-20      66    20.00       1724.    
     MULTIPLE LAYERS AND PROPORTIONS :    2, 0.77       3, 0.23
   809 2906-71-365     71    365.0       1744.    
     MULTIPLE LAYERS AND PROPORTIONS :    2, 0.77       3, 0.23
   810 2922-16-313     16    313.0       1748.    
   811 2922-22-34      22    34.00       1736.    
   812 2922-27-13      27    13.00       1727.    
   813 2559-17-6       17    6.000       1766.    
     MULTIPLE LAYERS AND PROPORTIONS :    1, 0.19       2, 0.18       3, 0.63
   814 2559-42-351     42    351.0       1729.    
     MULTIPLE LAYERS AND PROPORTIONS :    2, 0.37       3, 0.63
   815 2559-48-348     48    348.0       1727.    
     MULTIPLE LAYERS AND PROPORTIONS :    2, 0.37       3, 0.63
   816 2559-56-3       56    3.000       1747.    
     MULTIPLE LAYERS AND PROPORTIONS :    2, 0.37       3, 0.63
   817 2559-66-20      66    20.00       1779.    
     MULTIPLE LAYERS AND PROPORTIONS :    1, 0.19       2, 0.18       3, 0.63
   818 2559-71-365     71    365.0       1791.    
     MULTIPLE LAYERS AND PROPORTIONS :    1, 0.19       2, 0.18       3, 0.63
   819 2920-1-109       1    109.0       1851.    
 Observation within a steady-state time step has been moved to the end of the time step.
   820 2901-42-351     42    351.0       1703.    
   821 2901-55-355     55    355.0       1725.    
   822 2901-61-5       61    5.000       1741.    
   823 2901-66-20      66    20.00       1777.    
   824 2901-71-365     71    365.0       1790.    
   825 2905-17-6       17    6.000       1766.    
     MULTIPLE LAYERS AND PROPORTIONS :    1, 0.55       2, 0.45
   826 2905-22-34      22    34.00       1752.    
     MULTIPLE LAYERS AND PROPORTIONS :    1, 0.55       2, 0.45
   827 2905-42-351     42    351.0       1705.    
   828 2905-71-50      71    50.00       1791.    
     MULTIPLE LAYERS AND PROPORTIONS :    1, 0.55       2, 0.45
   829 2905-71-365     71    365.0       1792.    
     MULTIPLE LAYERS AND PROPORTIONS :    1, 0.55       2, 0.45
   830 2907-42-351     42    351.0       1686.    
   831 2907-48-348     48    348.0       1710.    
   832 2907-55-355     55    355.0       1725.    
   833 2907-61-5       61    5.000       1744.    
   834 2907-66-20      66    20.00       1779.    
   835 2907-71-365     71    365.0       1793.    
   836 2900-17-6       17    6.000       1758.    
     MULTIPLE LAYERS AND PROPORTIONS :    1, 0.40       2, 0.60
   837 2900-56-20      56    20.00       1729.    
   838 2900-66-26      66    26.00       1782.    
   839 2874-3-290       3    290.0       1828.    
   840 2838-3-1         3    1.000       1817.    
   841 2809-16-354     16    354.0       1803.    
     MULTIPLE LAYERS AND PROPORTIONS :    2, 0.14       3, 0.86
   842 2788-1-105       1    105.0       1834.    
 Observation within a steady-state time step has been moved to the end of the time step.
   843 2788-7-3         7    3.000       1834.    
   844 2788-11-311     11    311.0       1833.    
   845 2780-12-173     12    173.0       1827.    
   846 2780-16-354     16    354.0       1802.    
   847 2780-37-33      37    33.00       1689.    
   848 2779-16-354     16    354.0       1809.    
     MULTIPLE LAYERS AND PROPORTIONS :    2, 0.37       3, 0.63
   849 2779-22-34      22    34.00       1782.    
     MULTIPLE LAYERS AND PROPORTIONS :    2, 0.37       3, 0.63
   850 2777-16-354     16    354.0       1824.    
   851 2787-16-335     16    335.0       1815.    
     MULTIPLE LAYERS AND PROPORTIONS :    1, 0.66       2, 0.34
   852 2787-22-34      22    34.00       1802.    
   853 2787-34-351     34    351.0       1762.    
   854 2787-56-25      56    25.00       1747.    
   855 2787-61-52      61    52.00       1751.    
   856 2787-66-25      66    25.00       1760.    
   857 2783-17-6       17    6.000       1822.    
     MULTIPLE LAYERS AND PROPORTIONS :    1, 0.41       2, 0.59
   858 2783-56-25      56    25.00       1749.    
   859 2783-66-20      66    20.00       1780.    
     MULTIPLE LAYERS AND PROPORTIONS :    1, 0.41       2, 0.59
   860 2783-71-365     71    365.0       1781.    
     MULTIPLE LAYERS AND PROPORTIONS :    1, 0.41       2, 0.59
   861 2790-66-20      66    20.00       1764.    
     MULTIPLE LAYERS AND PROPORTIONS :    2, 0.52       3, 0.48
   862 2790-71-365     71    365.0       1774.    
     MULTIPLE LAYERS AND PROPORTIONS :    2, 0.52       3, 0.48
   863 2745-16-354     16    354.0       1825.    
     MULTIPLE LAYERS AND PROPORTIONS :    1, 0.42       2, 0.58
   864 2745-66-20      66    20.00       1767.    
     MULTIPLE LAYERS AND PROPORTIONS :    1, 0.42       2, 0.58
   865 2745-71-365     71    365.0       1771.    
     MULTIPLE LAYERS AND PROPORTIONS :    1, 0.42       2, 0.58
   866 2775-1-86        1    86.00       1838.    
 Observation within a steady-state time step has been moved to the end of the time step.
   867 2775-7-68        7    68.00       1836.    
   868 2731-48-348     48    348.0       1740.    
     MULTIPLE LAYERS AND PROPORTIONS :    2, 0.87       3, 0.13
   869 2731-55-354     55    354.0       1732.    
     MULTIPLE LAYERS AND PROPORTIONS :    2, 0.87       3, 0.13
   870 2731-61-5       61    5.000       1751.    
     MULTIPLE LAYERS AND PROPORTIONS :    2, 0.87       3, 0.13
   871 2731-66-20      66    20.00       1763.    
     MULTIPLE LAYERS AND PROPORTIONS :    2, 0.87       3, 0.13
   872 2731-71-365     71    365.0       1772.    
     MULTIPLE LAYERS AND PROPORTIONS :    2, 0.87       3, 0.13
   873 2771-22-21      22    21.00       1796.    
   874 2718-17-6       17    6.000       1829.    
     MULTIPLE LAYERS AND PROPORTIONS :    2, 0.69       3, 0.31
   875 2718-27-13      27    13.00       1784.    
     MULTIPLE LAYERS AND PROPORTIONS :    2, 0.69       3, 0.31
   876 2769-56-26      56    26.00       1705.    
   877 2769-61-55      61    55.00       1708.    
   878 2769-66-26      66    26.00       1715.    
   879 2758-7-344       7    344.0       1835.    
   880 2675-48-348     48    348.0       1693.    
   881 2675-61-4       61    4.000       1704.    
   882 2675-66-20      66    20.00       1711.    
   883 2675-71-365     71    365.0       1726.    
   884 2637-42-351     42    351.0       1723.    
   885 2637-48-349     48    349.0       1721.    
   886 2637-55-355     55    355.0       1721.    
   887 2637-61-4       61    4.000       1722.    
   888 2637-66-51      66    51.00       1728.    
   889 2637-71-365     71    365.0       1741.    
   890 2641-16-355     16    355.0       1822.    
     MULTIPLE LAYERS AND PROPORTIONS :    2, 0.07       3, 0.93
   891 2641-56-25      56    25.00       1716.    
     MULTIPLE LAYERS AND PROPORTIONS :    2, 0.07       3, 0.93
   892 2641-61-53      61    53.00       1720.    
     MULTIPLE LAYERS AND PROPORTIONS :    2, 0.07       3, 0.93
   893 2641-66-26      66    26.00       1717.    
     MULTIPLE LAYERS AND PROPORTIONS :    2, 0.07       3, 0.93
   894 2640-42-351     42    351.0       1705.    
   895 2640-48-348     48    348.0       1712.    
   896 2640-55-355     55    355.0       1717.    
   897 2640-61-4       61    4.000       1721.    
   898 2640-66-20      66    20.00       1732.    
   899 2640-71-4       71    4.000       1743.    
   900 2640-71-365     71    365.0       1745.    
   901 2636-42-351     42    351.0       1705.    
   902 2636-48-348     48    348.0       1710.    
   903 2636-55-355     55    355.0       1704.    
   904 2636-61-4       61    4.000       1718.    
   905 2636-66-20      66    20.00       1727.    
   906 2636-71-5       71    5.000       1738.    
   907 2636-71-365     71    365.0       1741.    
   908 2639-12-178     12    178.0       1856.    
     MULTIPLE LAYERS AND PROPORTIONS :    2, 0.39       3, 0.61
   909 2639-16-354     16    354.0       1839.    
     MULTIPLE LAYERS AND PROPORTIONS :    2, 0.39       3, 0.61
   910 2639-42-351     42    351.0       1715.    
     MULTIPLE LAYERS AND PROPORTIONS :    2, 0.39       3, 0.61
   911 2639-48-348     48    348.0       1725.    
     MULTIPLE LAYERS AND PROPORTIONS :    2, 0.39       3, 0.61
   912 2639-71-50      71    50.00       1753.    
     MULTIPLE LAYERS AND PROPORTIONS :    2, 0.39       3, 0.61
   913 2639-71-365     71    365.0       1754.    
     MULTIPLE LAYERS AND PROPORTIONS :    2, 0.39       3, 0.61
   914 2654-56-25      56    25.00       1734.    
   915 2654-61-52      61    52.00       1736.    
   916 2978-1-364       1    364.0       1871.    
 Observation within a steady-state time step has been moved to the end of the time step.
   917 2978-4-93        4    93.00       1868.    
   918 2964-48-300     48    300.0       1788.    
   919 2964-55-321     55    321.0       1815.    
   920 2964-60-313     60    313.0       1823.    
   921 2964-65-364     65    364.0       1827.    
   922 2964-71-349     71    349.0       1835.    
   923 2965-71-350     71    350.0       1956.    
   924 2985-17-5       17    5.000       1729.    
   925 2985-56-24      56    24.00       1725.    
   926 2985-61-56      61    56.00       1753.    
   927 2985-66-18      66    18.00       1803.    
   928 2913-56-23      56    23.00       1741.    
   929 2921-1-86        1    86.00       1806.    
 Observation within a steady-state time step has been moved to the end of the time step.
   930 2921-7-3         7    3.000       1801.    
   931 2921-10-320     10    320.0       1794.    
   932 2921-12-361     12    361.0       1787.    
   933 2938-56-26      56    26.00       1732.    
   934 2938-61-59      61    59.00       1755.    
   935 2938-66-20      66    20.00       1805.    
   936 2935-22-34      22    34.00       1724.    
   937 2935-27-20      27    20.00       1702.    
   938 2935-56-24      56    24.00       1723.    
   939 2935-61-56      61    56.00       1746.    
   940 2935-66-19      66    19.00       1797.    
   941 2943-48-275     48    275.0       1710.    
   942 2944-48-275     48    275.0       1707.    
   943 2936-56-24      56    24.00       1826.    
     MULTIPLE LAYERS AND PROPORTIONS :    2, 0.32       3, 0.68
   944 2936-61-55      61    55.00       1834.    
     MULTIPLE LAYERS AND PROPORTIONS :    2, 0.32       3, 0.68
   945 2937-17-5       17    5.000       1815.    
     MULTIPLE LAYERS AND PROPORTIONS :    2, 0.86       3, 0.14
   946 2937-22-34      22    34.00       1798.    
     MULTIPLE LAYERS AND PROPORTIONS :    2, 0.86       3, 0.14
   947 2937-32-85      32    85.00       1767.    
     MULTIPLE LAYERS AND PROPORTIONS :    2, 0.86       3, 0.14
   948 2937-42-349     42    349.0       1749.    
     MULTIPLE LAYERS AND PROPORTIONS :    2, 0.86       3, 0.14
   949 2937-48-341     48    341.0       1779.    
     MULTIPLE LAYERS AND PROPORTIONS :    2, 0.86       3, 0.14
   950 2937-56-24      56    24.00       1805.    
     MULTIPLE LAYERS AND PROPORTIONS :    2, 0.86       3, 0.14
   951 2937-65-302     65    302.0       1818.    
     MULTIPLE LAYERS AND PROPORTIONS :    2, 0.86       3, 0.14
   952 2915-12-6       12    6.000       1856.    
     MULTIPLE LAYERS AND PROPORTIONS :    2, 0.74       3, 0.26
   953 2915-17-5       17    5.000       1829.    
     MULTIPLE LAYERS AND PROPORTIONS :    2, 0.74       3, 0.26
   954 2915-56-24      56    24.00       1818.    
     MULTIPLE LAYERS AND PROPORTIONS :    2, 0.74       3, 0.26
   955 2915-61-56      61    56.00       1828.    
     MULTIPLE LAYERS AND PROPORTIONS :    2, 0.74       3, 0.26
   956 2915-66-19      66    19.00       1834.    
     MULTIPLE LAYERS AND PROPORTIONS :    2, 0.74       3, 0.26
   957 2863-48-275     48    275.0       1773.    
   958 2864-48-275     48    275.0       1775.    
   959 2885-17-5       17    5.000       1811.    
   960 2885-56-24      56    24.00       1794.    
   961 2885-61-56      61    56.00       1810.    
   962 2867-17-6       17    6.000       1763.    
   963 2867-21-335     21    335.0       1730.    
   964 2867-56-24      56    24.00       1732.    
   965 2867-61-56      61    56.00       1751.    
   966 2867-66-19      66    19.00       1792.    
   967 2887-56-24      56    24.00       1732.    
     MULTIPLE LAYERS AND PROPORTIONS :    2, 0.86       3, 0.14
   968 2887-66-19      66    19.00       1779.    
     MULTIPLE LAYERS AND PROPORTIONS :    2, 0.86       3, 0.14
   969 2886-17-6       17    6.000       1759.    
   970 2886-56-24      56    24.00       1727.    
   971 2886-61-56      61    56.00       1748.    
   972 2886-66-27      66    27.00       1789.    
   973 2850-1-86        1    86.00       1825.    
 Observation within a steady-state time step has been moved to the end of the time step.
   974 2850-7-4         7    4.000       1820.    
   975 2850-12-361     12    361.0       1812.    
   976 2837-12-284     12    284.0       1798.    
     MULTIPLE LAYERS AND PROPORTIONS :    1, 0.18       2, 0.82
   977 2837-16-354     16    354.0       1759.    
   978 2837-22-34      22    34.00       1730.    
   979 2837-32-85      32    85.00       1685.    
   980 2837-37-34      37    34.00       1676.    
   981 2837-42-349     42    349.0       1690.    
   982 2837-48-341     48    341.0       1709.    
   983 2837-56-24      56    24.00       1730.    
   984 2837-60-319     60    319.0       1750.    
   985 2837-65-298     65    298.0       1789.    
     MULTIPLE LAYERS AND PROPORTIONS :    1, 0.18       2, 0.82
   986 2837-71-11      71    11.00       1802.    
     MULTIPLE LAYERS AND PROPORTIONS :    1, 0.18       2, 0.82
   987 2837-71-365     71    365.0       1807.    
     MULTIPLE LAYERS AND PROPORTIONS :    1, 0.18       2, 0.82
   988 2818-17-6       17    6.000       1760.    
   989 2818-56-24      56    24.00       1738.    
   990 2818-61-52      61    52.00       1757.    
   991 2818-66-25      66    25.00       1793.    
   992 2800-48-348     48    348.0       1708.    
   993 2800-55-355     55    355.0       1729.    
   994 2800-61-7       61    7.000       1747.    
   995 2800-65-341     65    341.0       1780.    
   996 2800-71-50      71    50.00       1796.    
   997 2800-71-365     71    365.0       1797.    
   998 2786-56-24      56    24.00       1730.    
   999 2786-61-52      61    52.00       1745.    
  1000 2786-66-25      66    25.00       1781.    
  1001 2770-1-86        1    86.00       1835.    
 Observation within a steady-state time step has been moved to the end of the time step.
  1002 2770-7-4         7    4.000       1831.    
  1003 2770-12-361     12    361.0       1826.    
  1004 2744-56-24      56    24.00       1736.    
  1005 2740-56-24      56    24.00       1735.    
  1006 2741-17-6       17    6.000       1783.    
  1007 2694-1-86        1    86.00       1871.    
 Observation within a steady-state time step has been moved to the end of the time step.
  1008 2694-5-67        5    67.00       1870.    
  1009 2643-2-60        2    60.00       1888.    
  1010 2643-6-284       6    284.0       1886.    
  1011 2643-11-275     11    275.0       1876.    
  1012 2933-56-23      56    23.00       1728.    
  1013 2851-16-354     16    354.0       1770.    
  1014 2851-65-341     65    341.0       1790.    
  1015 2851-71-50      71    50.00       1799.    
  1016 2851-71-365     71    365.0       1799.    
  1017 2854-65-341     65    341.0       1784.    
  1018 2854-71-50      71    50.00       1797.    
  1019 2854-71-365     71    365.0       1798.    
  1020 2796-61-52      61    52.00       1752.    
  1021 2796-66-33      66    33.00       1772.    
  1022 2712-42-351     42    351.0       1745.    
  1023 2712-48-348     48    348.0       1750.    
  1024 2712-56-27      56    27.00       1756.    
  1025 2712-61-7       61    7.000       1758.    
  1026 2712-66-55      66    55.00       1770.    
  1027 2712-71-365     71    365.0       1778.    
  1028 2709-55-355     55    355.0       1767.    
  1029 2709-61-7       61    7.000       1781.    
  1030 2709-65-341     65    341.0       1781.    
  1031 2709-71-365     71    365.0       1785.    
  1032 2702-42-351     42    351.0       1782.    
  1033 2702-48-348     48    348.0       1773.    
  1034 2702-56-27      56    27.00       1770.    
  1035 2702-61-7       61    7.000       1770.    
  1036 2702-65-341     65    341.0       1777.    
  1037 2702-71-365     71    365.0       1790.    
  1038 2711-39-335     39    335.0       1752.    
  1039 2711-56-26      56    26.00       1755.    
  1040 2711-61-7       61    7.000       1757.    
  1041 2711-65-341     65    341.0       1768.    
  1042 2711-71-365     71    365.0       1779.    
  1043 2713-42-351     42    351.0       1746.    
  1044 2713-56-26      56    26.00       1755.    
  1045 2713-61-7       61    7.000       1756.    
  1046 2713-65-341     65    341.0       1770.    
  1047 2713-71-365     71    365.0       1780.    
  1048 2682-56-23      56    23.00       1758.    
  1049 2682-61-53      61    53.00       1756.    
  1050 2682-66-28      66    28.00       1763.    
  1051 2866-12-332     12    332.0       1810.    
  1052 2866-17-6       17    6.000       1764.    
  1053 2998-43-6       43    6.000       2076.    
  1054 3416-56-26      56    26.00       1932.    
  1055 3416-61-55      61    55.00       1926.    
  1056 3416-66-19      66    19.00       1911.    
  1057 2986-8-305       8    305.0       1907.    
  1058 2960-1-365       1    365.0       1941.    
 Observation within a steady-state time step has been moved to the end of the time step.
  1059 2961-56-25      56    25.00       1958.    
     MULTIPLE LAYERS AND PROPORTIONS :    1, 0.29       2, 0.71
  1060 2961-61-59      61    59.00       1947.    
     MULTIPLE LAYERS AND PROPORTIONS :    1, 0.29       2, 0.71
  1061 2961-66-19      66    19.00       1917.    
     MULTIPLE LAYERS AND PROPORTIONS :    1, 0.29       2, 0.71
  1062 2957-56-25      56    25.00       1965.    
     MULTIPLE LAYERS AND PROPORTIONS :    1, 0.31       2, 0.69
  1063 2957-61-59      61    59.00       1978.    
     MULTIPLE LAYERS AND PROPORTIONS :    1, 0.31       2, 0.69
  1064 2988-1-51        1    51.00       1886.    
 Observation within a steady-state time step has been moved to the end of the time step.
  1065 2984-8-213       8    213.0       1873.    
  1066 2971-7-60        7    60.00       1916.    
  1067 2969-56-25      56    25.00       1917.    
     MULTIPLE LAYERS AND PROPORTIONS :    1, 0.68       2, 0.32
  1068 2969-61-55      61    55.00       1914.    
     MULTIPLE LAYERS AND PROPORTIONS :    1, 0.68       2, 0.32
  1069 2969-66-19      66    19.00       1855.    
     MULTIPLE LAYERS AND PROPORTIONS :    1, 0.68       2, 0.32
  1070 2976-56-25      56    25.00       1862.    
  1071 2976-61-55      61    55.00       1862.    
  1072 2976-66-19      66    19.00       1846.    
  1073 2972-56-25      56    25.00       1858.    
  1074 2972-66-19      66    19.00       1844.    
  1075 2919-21-335     21    335.0       1807.    
  1076 2946-56-25      56    25.00       1956.    
     MULTIPLE LAYERS AND PROPORTIONS :    2, 0.81       3, 0.19
  1077 2946-66-19      66    19.00       1917.    
     MULTIPLE LAYERS AND PROPORTIONS :    2, 0.81       3, 0.19
  1078 2927-22-17      22    17.00       1953.    
     MULTIPLE LAYERS AND PROPORTIONS :    2, 0.83       3, 0.17
  1079 2927-27-32      27    32.00       1950.    
     MULTIPLE LAYERS AND PROPORTIONS :    2, 0.83       3, 0.17
  1080 2955-8-276       8    276.0       1884.    
     MULTIPLE LAYERS AND PROPORTIONS :    1, 0.50       2, 0.50
  1081 2955-12-40      12    40.00       1882.    
     MULTIPLE LAYERS AND PROPORTIONS :    1, 0.50       2, 0.50
  1082 2955-17-1       17    1.000       1870.    
     MULTIPLE LAYERS AND PROPORTIONS :    1, 0.50       2, 0.50
  1083 2955-27-32      27    32.00       1849.    
     MULTIPLE LAYERS AND PROPORTIONS :    1, 0.50       2, 0.50
  1084 2955-32-12      32    12.00       1857.    
     MULTIPLE LAYERS AND PROPORTIONS :    1, 0.50       2, 0.50
  1085 2955-37-1       37    1.000       1849.    
     MULTIPLE LAYERS AND PROPORTIONS :    1, 0.50       2, 0.50
  1086 2926-56-26      56    26.00       1971.    
  1087 2926-61-59      61    59.00       1956.    
  1088 2942-1-365       1    365.0       1980.    
 Observation within a steady-state time step has been moved to the end of the time step.
  1089 2916-56-25      56    25.00       1981.    
  1090 2916-61-59      61    59.00       1963.    
  1091 2916-66-20      66    20.00       1933.    
  1092 2941-42-364     42    364.0       2010.    
  1093 2941-48-335     48    335.0       2013.    
  1094 2941-56-23      56    23.00       2015.    
  1095 2941-61-59      61    59.00       2009.    
  1096 2941-66-26      66    26.00       2003.    
  1097 2941-71-54      71    54.00       1985.    
  1098 3185-34-152     34    152.0       2050.    
  1099 2925-42-364     42    364.0       2042.    
  1100 2925-48-335     48    335.0       2045.    
  1101 2925-56-23      56    23.00       2044.    
  1102 2925-66-26      66    26.00       2024.    
  1103 2925-71-54      71    54.00       2018.    
  1104 2954-42-363     42    363.0       2095.    
  1105 2954-56-23      56    23.00       2088.    
  1106 2954-61-59      61    59.00       2078.    
  1107 2954-66-27      66    27.00       2077.    
  1108 2889-42-364     42    364.0       2041.    
  1109 2889-48-336     48    336.0       2056.    
  1110 2889-56-24      56    24.00       2053.    
  1111 2880-22-18      22    18.00       2092.    
  1112 2880-27-32      27    32.00       2088.    
  1113 2880-38-1       38    1.000       2076.    
  1114 2880-42-363     42    363.0       2076.    
  1115 2893-1-274       1    274.0       2091.    
 Observation within a steady-state time step has been moved to the end of the time step.
  1116 2893-4-279       4    279.0       2087.    
  1117 2893-5-285       5    285.0       2084.    
  1118 2893-12-46      12    46.00       2075.    
  1119 2893-17-19      17    19.00       2069.    
  1120 2893-22-1       22    1.000       2063.    
  1121 2893-27-32      27    32.00       2062.    
  1122 2893-32-14      32    14.00       2062.    
  1123 2893-38-1       38    1.000       2055.    
  1124 2896-42-363     42    363.0       2024.    
  1125 2853-42-364     42    364.0       2049.    
  1126 2853-48-336     48    336.0       2053.    
  1127 2853-56-24      56    24.00       2052.    
  1128 2853-61-59      61    59.00       2043.    
  1129 2853-66-27      66    27.00       2025.    
  1130 2853-71-55      71    55.00       2016.    
  1131 2858-42-363     42    363.0       1992.    
  1132 2858-48-336     48    336.0       2008.    
  1133 2858-56-24      56    24.00       2017.    
  1134 2858-61-59      61    59.00       2004.    
  1135 2858-66-27      66    27.00       1969.    
  1136 2858-71-62      71    62.00       1974.    
  1137 2904-2-1         2    1.000       2009.    
     MULTIPLE LAYERS AND PROPORTIONS :    1, 0.70       2, 0.30
  1138 2892-1-360       1    360.0       2007.    
 Observation within a steady-state time step has been moved to the end of the time step.
     MULTIPLE LAYERS AND PROPORTIONS :    1, 0.59       2, 0.41
  1139 2892-7-65        7    65.00       1995.    
     MULTIPLE LAYERS AND PROPORTIONS :    1, 0.59       2, 0.41
  1140 2892-11-334     11    334.0       1988.    
     MULTIPLE LAYERS AND PROPORTIONS :    1, 0.59       2, 0.41
  1141 2892-16-318     16    318.0       1984.    
     MULTIPLE LAYERS AND PROPORTIONS :    1, 0.59       2, 0.41
  1142 2892-22-34      22    34.00       1982.    
     MULTIPLE LAYERS AND PROPORTIONS :    1, 0.59       2, 0.41
  1143 2892-27-32      27    32.00       1986.    
     MULTIPLE LAYERS AND PROPORTIONS :    1, 0.59       2, 0.41
  1144 2892-31-351     31    351.0       1982.    
     MULTIPLE LAYERS AND PROPORTIONS :    1, 0.59       2, 0.41
  1145 2892-36-50      36    50.00       1996.    
     MULTIPLE LAYERS AND PROPORTIONS :    1, 0.59       2, 0.41
  1146 2909-56-25      56    25.00       1986.    
     MULTIPLE LAYERS AND PROPORTIONS :    1, 0.61       2, 0.39
  1147 2909-61-59      61    59.00       1960.    
     MULTIPLE LAYERS AND PROPORTIONS :    1, 0.61       2, 0.39
  1148 2909-66-19      66    19.00       1938.    
     MULTIPLE LAYERS AND PROPORTIONS :    1, 0.61       2, 0.39
  1149 2911-56-25      56    25.00       1984.    
     MULTIPLE LAYERS AND PROPORTIONS :    1, 0.75       2, 0.25
  1150 2911-61-59      61    59.00       1964.    
     MULTIPLE LAYERS AND PROPORTIONS :    1, 0.75       2, 0.25
  1151 2911-66-19      66    19.00       1937.    
     MULTIPLE LAYERS AND PROPORTIONS :    1, 0.75       2, 0.25
  1152 2884-66-32      66    32.00       1943.    
  1153 2865-8-91        8    91.00       1980.    
  1154 2865-48-342     48    342.0       1982.    
  1155 2848-66-32      66    32.00       1961.    
     MULTIPLE LAYERS AND PROPORTIONS :    1, 0.92       2, 0.08
  1156 2881-48-342     48    342.0       1981.    
  1157 2859-8-121       8    121.0       1997.    
  1158 2871-56-24      56    24.00       1811.    
  1159 2871-61-59      61    59.00       1816.    
  1160 2871-66-27      66    27.00       1823.    
  1161 2811-17-6       17    6.000       1836.    
  1162 2811-22-34      22    34.00       1823.    
  1163 2811-56-24      56    24.00       1832.    
  1164 2811-61-59      61    59.00       1835.    
  1165 2834-48-342     48    342.0       1994.    
  1166 2835-48-342     48    342.0       1994.    
  1167 2835-56-24      56    24.00       2006.    
  1168 2849-42-363     42    363.0       1982.    
  1169 2849-48-336     48    336.0       2003.    
  1170 2828-55-343     55    343.0       2013.    
  1171 2828-61-38      61    38.00       2000.    
  1172 2828-66-55      66    55.00       1961.    
  1173 2828-71-365     71    365.0       1963.    
  1174 2846-8-32        8    32.00       2008.    
     MULTIPLE LAYERS AND PROPORTIONS :    1, 0.44       2, 0.44       3, 0.12
  1175 2847-56-24      56    24.00       2005.    
     MULTIPLE LAYERS AND PROPORTIONS :    1, 0.23       2, 0.40       3, 0.37
  1176 2833-1-283       1    283.0       2018.    
 Observation within a steady-state time step has been moved to the end of the time step.
  1177 2821-43-27      43    27.00       1983.    
     MULTIPLE LAYERS AND PROPORTIONS :    1, 0.56       2, 0.44
  1178 2821-48-334     48    334.0       1999.    
     MULTIPLE LAYERS AND PROPORTIONS :    1, 0.56       2, 0.44
  1179 2821-56-23      56    23.00       2011.    
     MULTIPLE LAYERS AND PROPORTIONS :    1, 0.56       2, 0.44
  1180 2821-61-54      61    54.00       1994.    
     MULTIPLE LAYERS AND PROPORTIONS :    1, 0.56       2, 0.44
  1181 2821-66-13      66    13.00       1953.    
     MULTIPLE LAYERS AND PROPORTIONS :    1, 0.56       2, 0.44
  1182 2817-1-364       1    364.0       2034.    
 Observation within a steady-state time step has been moved to the end of the time step.
  1183 2805-48-334     48    334.0       2001.    
     MULTIPLE LAYERS AND PROPORTIONS :    2, 0.72       3, 0.28
  1184 2805-56-23      56    23.00       2012.    
     MULTIPLE LAYERS AND PROPORTIONS :    2, 0.72       3, 0.28
  1185 2805-61-53      61    53.00       1994.    
     MULTIPLE LAYERS AND PROPORTIONS :    2, 0.72       3, 0.28
  1186 2805-66-20      66    20.00       1954.    
     MULTIPLE LAYERS AND PROPORTIONS :    2, 0.72       3, 0.28
  1187 2798-8-32        8    32.00       2025.    
     MULTIPLE LAYERS AND PROPORTIONS :    1, 0.81       2, 0.19
  1188 2792-48-334     48    334.0       2008.    
  1189 2792-56-23      56    23.00       2019.    
  1190 2792-61-53      61    53.00       2001.    
  1191 2792-66-20      66    20.00       1972.    
  1192 2820-3-338       3    338.0       2046.    
  1193 2820-6-224       6    224.0       2047.    
  1194 2820-7-11        7    11.00       2038.    
  1195 2820-12-46      12    46.00       2037.    
  1196 2820-17-19      17    19.00       2033.    
  1197 2820-22-17      22    17.00       2029.    
  1198 2820-27-32      27    32.00       2035.    
  1199 2820-31-351     31    351.0       2032.    
  1200 2820-37-28      37    28.00       2030.    
  1201 2820-48-334     48    334.0       2020.    
  1202 2820-56-23      56    23.00       2034.    
  1203 2820-60-319     60    319.0       2016.    
  1204 2820-65-299     65    299.0       1978.    
  1205 2820-71-365     71    365.0       1985.    
  1206 2802-48-334     48    334.0       2023.    
  1207 2802-56-23      56    23.00       2039.    
  1208 2802-61-53      61    53.00       2020.    
  1209 2802-66-20      66    20.00       2007.    
  1210 2795-17-19      17    19.00       2040.    
  1211 2795-22-17      22    17.00       2037.    
  1212 2795-32-13      32    13.00       2041.    
  1213 2795-37-345     37    345.0       2028.    
  1214 2795-49-5       49    5.000       2031.    
  1215 2795-55-343     55    343.0       2037.    
  1216 2795-71-365     71    365.0       1992.    
  1217 2722-61-53      61    53.00       2062.    
     MULTIPLE LAYERS AND PROPORTIONS :    1, 0.32       2, 0.68
  1218 2723-61-53      61    53.00       2064.    
  1219 2723-66-20      66    20.00       2037.    
  1220 2715-48-335     48    335.0       2064.    
  1221 2715-56-23      56    23.00       2077.    
  1222 2715-61-53      61    53.00       2059.    
  1223 2715-66-20      66    20.00       2034.    
  1224 2754-1-365       1    365.0       2084.    
 Observation within a steady-state time step has been moved to the end of the time step.
  1225 2764-48-334     48    334.0       2045.    
     MULTIPLE LAYERS AND PROPORTIONS :    1, 0.38       2, 0.62
  1226 2764-56-23      56    23.00       2057.    
     MULTIPLE LAYERS AND PROPORTIONS :    1, 0.38       2, 0.62
  1227 2764-61-53      61    53.00       2040.    
     MULTIPLE LAYERS AND PROPORTIONS :    1, 0.38       2, 0.62
  1228 2764-66-20      66    20.00       2012.    
     MULTIPLE LAYERS AND PROPORTIONS :    1, 0.38       2, 0.62
  1229 2732-48-335     48    335.0       2047.    
  1230 2732-56-20      56    20.00       2062.    
  1231 2739-1-360       1    360.0       2087.    
 Observation within a steady-state time step has been moved to the end of the time step.
  1232 2736-8-32        8    32.00       2077.    
     MULTIPLE LAYERS AND PROPORTIONS :    1, 0.45       2, 0.55
  1233 2724-48-334     48    334.0       2054.    
     MULTIPLE LAYERS AND PROPORTIONS :    1, 0.47       2, 0.53
  1234 2724-56-23      56    23.00       2067.    
     MULTIPLE LAYERS AND PROPORTIONS :    1, 0.47       2, 0.53
  1235 2724-61-53      61    53.00       2053.    
     MULTIPLE LAYERS AND PROPORTIONS :    1, 0.47       2, 0.53
  1236 2724-66-20      66    20.00       2027.    
     MULTIPLE LAYERS AND PROPORTIONS :    1, 0.47       2, 0.53
  1237 2737-42-363     42    363.0       2008.    
     MULTIPLE LAYERS AND PROPORTIONS :    1, 0.54       2, 0.46
  1238 2717-2-1         2    1.000       2069.    
  1239 2716-8-32        8    32.00       2057.    
  1240 2727-11-121     11    121.0       2014.    
  1241 2789-12-271     12    271.0       1861.    
  1242 2696-1-364       1    364.0       2056.    
 Observation within a steady-state time step has been moved to the end of the time step.
  1243 2696-6-341       6    341.0       2041.    
  1244 2696-11-334     11    334.0       2035.    
  1245 2696-16-313     16    313.0       2031.    
  1246 2696-22-34      22    34.00       2031.    
  1247 2708-48-337     48    337.0       1999.    
  1248 2708-56-19      56    19.00       1995.    
  1249 2708-66-28      66    28.00       1983.    
  1250 2701-32-43      32    43.00       2047.    
     MULTIPLE LAYERS AND PROPORTIONS :    1, 0.37       2, 0.41       3, 0.22
  1251 2701-42-363     42    363.0       2029.    
     MULTIPLE LAYERS AND PROPORTIONS :    1, 0.37       2, 0.41       3, 0.22
  1252 2701-56-19      56    19.00       2055.    
     MULTIPLE LAYERS AND PROPORTIONS :    1, 0.37       2, 0.41       3, 0.22
  1253 2668-42-363     42    363.0       2099.    
  1254 2668-56-19      56    19.00       2095.    
  1255 2668-61-52      61    52.00       2091.    
  1256 2668-66-35      66    35.00       2087.    
  1257 2681-8-32        8    32.00       2095.    
  1258 2678-48-335     48    335.0       2074.    
  1259 2678-56-23      56    23.00       2096.    
  1260 2678-61-54      61    54.00       2071.    
  1261 2678-66-20      66    20.00       2046.    
  1262 2690-66-55      66    55.00       2036.    
  1263 2692-2-1         2    1.000       2090.    
  1264 2676-43-27      43    27.00       2084.    
     MULTIPLE LAYERS AND PROPORTIONS :    1, 0.11       2, 0.89
  1265 2676-48-335     48    335.0       2082.    
     MULTIPLE LAYERS AND PROPORTIONS :    1, 0.11       2, 0.89
  1266 2676-56-23      56    23.00       2090.    
     MULTIPLE LAYERS AND PROPORTIONS :    1, 0.11       2, 0.89
  1267 2676-61-53      61    53.00       2073.    
     MULTIPLE LAYERS AND PROPORTIONS :    1, 0.11       2, 0.89
  1268 2676-66-13      66    13.00       2057.    
     MULTIPLE LAYERS AND PROPORTIONS :    1, 0.11       2, 0.89
  1269 2705-48-335     48    335.0       2072.    
  1270 2705-56-23      56    23.00       2084.    
  1271 2705-61-54      61    54.00       2067.    
  1272 2705-66-18      66    18.00       2041.    
  1273 2707-43-27      43    27.00       2068.    
     MULTIPLE LAYERS AND PROPORTIONS :    1, 0.31       2, 0.69
  1274 2707-48-335     48    335.0       2067.    
     MULTIPLE LAYERS AND PROPORTIONS :    1, 0.31       2, 0.69
  1275 2707-56-23      56    23.00       2080.    
     MULTIPLE LAYERS AND PROPORTIONS :    1, 0.31       2, 0.69
  1276 2707-61-53      61    53.00       2062.    
     MULTIPLE LAYERS AND PROPORTIONS :    1, 0.31       2, 0.69
  1277 2707-66-20      66    20.00       2036.    
     MULTIPLE LAYERS AND PROPORTIONS :    1, 0.31       2, 0.69
  1278 2689-48-335     48    335.0       2068.    
  1279 2689-56-20      56    20.00       2084.    
  1280 2656-43-27      43    27.00       2089.    
  1281 2656-48-334     48    334.0       2086.    
  1282 2656-56-23      56    23.00       2110.    
  1283 2656-61-53      61    53.00       2083.    
  1284 2656-66-20      66    20.00       2058.    
  1285 2674-33-76      33    76.00       2097.    
  1286 2973-56-19      56    19.00       2361.    
     MULTIPLE LAYERS AND PROPORTIONS :    2, 0.52       3, 0.48
  1287 2973-66-32      66    32.00       2345.    
     MULTIPLE LAYERS AND PROPORTIONS :    2, 0.52       3, 0.48
  1288 2973-71-56      71    56.00       2326.    
     MULTIPLE LAYERS AND PROPORTIONS :    2, 0.52       3, 0.48
  1289 2977-38-91      38    91.00       2353.    
     MULTIPLE LAYERS AND PROPORTIONS :    2, 0.89       3, 0.11
  1290 2977-43-6       43    6.000       2361.    
     MULTIPLE LAYERS AND PROPORTIONS :    2, 0.89       3, 0.11
  1291 2977-48-335     48    335.0       2303.    
     MULTIPLE LAYERS AND PROPORTIONS :    2, 0.89       3, 0.11
  1292 2977-66-32      66    32.00       2340.    
     MULTIPLE LAYERS AND PROPORTIONS :    2, 0.89       3, 0.11
  1293 2991-42-362     42    362.0       2218.    
  1294 2991-48-334     48    334.0       2217.    
  1295 2991-56-27      56    27.00       2215.    
  1296 2991-61-59      61    59.00       2212.    
  1297 2991-66-25      66    25.00       2208.    
  1298 2991-71-57      71    57.00       2201.    
  1299 2966-42-362     42    362.0       2195.    
     MULTIPLE LAYERS AND PROPORTIONS :    2, 0.28       3, 0.72
  1300 2932-42-362     42    362.0       2079.    
  1301 2932-48-336     48    336.0       2078.    
  1302 2932-56-24      56    24.00       2073.    
  1303 2914-42-357     42    357.0       2126.    
  1304 2914-48-365     48    365.0       2119.    
  1305 2914-55-342     55    342.0       2106.    
  1306 2914-61-38      61    38.00       2100.    
  1307 2914-66-40      66    40.00       2091.    
  1308 2914-71-335     71    335.0       2076.    
  1309 2940-55-342     55    342.0       2119.    
  1310 2917-42-365     42    365.0       2135.    
  1311 2917-48-336     48    336.0       2132.    
  1312 2917-56-26      56    26.00       2119.    
  1313 2917-61-59      61    59.00       2102.    
  1314 2917-66-27      66    27.00       2108.    
  1315 2917-71-55      71    55.00       2097.    
  1316 2924-42-362     42    362.0       2164.    
  1317 2930-36-43      36    43.00       2337.    
  1318 2930-56-27      56    27.00       2345.    
  1319 2930-66-33      66    33.00       2292.    
  1320 2930-71-56      71    56.00       2273.    
  1321 2929-42-357     42    357.0       2414.    
     MULTIPLE LAYERS AND PROPORTIONS :    2, 0.33       3, 0.67
  1322 2929-48-355     48    355.0       2427.    
     MULTIPLE LAYERS AND PROPORTIONS :    2, 0.33       3, 0.67
  1323 2929-55-342     55    342.0       2428.    
     MULTIPLE LAYERS AND PROPORTIONS :    2, 0.33       3, 0.67
  1324 2929-60-362     60    362.0       2395.    
     MULTIPLE LAYERS AND PROPORTIONS :    2, 0.33       3, 0.67
  1325 2929-66-1       66    1.000       2345.    
     MULTIPLE LAYERS AND PROPORTIONS :    2, 0.33       3, 0.67
  1326 2929-71-335     71    335.0       2323.    
     MULTIPLE LAYERS AND PROPORTIONS :    2, 0.33       3, 0.67
  1327 2888-43-6       43    6.000       2314.    
     MULTIPLE LAYERS AND PROPORTIONS :    2, 0.37       3, 0.63
  1328 2888-48-334     48    334.0       2312.    
     MULTIPLE LAYERS AND PROPORTIONS :    2, 0.37       3, 0.63
  1329 2888-56-26      56    26.00       2312.    
     MULTIPLE LAYERS AND PROPORTIONS :    2, 0.37       3, 0.63
  1330 2888-66-32      66    32.00       2268.    
     MULTIPLE LAYERS AND PROPORTIONS :    2, 0.37       3, 0.63
  1331 2888-71-56      71    56.00       2248.    
     MULTIPLE LAYERS AND PROPORTIONS :    2, 0.37       3, 0.63
  1332 2856-32-84      32    84.00       2310.    
     MULTIPLE LAYERS AND PROPORTIONS :    2, 0.81       3, 0.19
  1333 2852-43-5       43    5.000       2289.    
     MULTIPLE LAYERS AND PROPORTIONS :    2, 0.96       3, 0.04
  1334 2852-56-19      56    19.00       2286.    
     MULTIPLE LAYERS AND PROPORTIONS :    2, 0.96       3, 0.04
  1335 2852-66-35      66    35.00       2251.    
     MULTIPLE LAYERS AND PROPORTIONS :    2, 0.96       3, 0.04
  1336 2852-71-56      71    56.00       2229.    
     MULTIPLE LAYERS AND PROPORTIONS :    2, 0.96       3, 0.04
  1337 2869-43-8       43    8.000       2322.    
  1338 2869-48-334     48    334.0       2322.    
  1339 2869-56-24      56    24.00       2325.    
  1340 2899-42-362     42    362.0       2169.    
  1341 2899-48-338     48    338.0       2165.    
  1342 2903-33-257     33    257.0       2172.    
     MULTIPLE LAYERS AND PROPORTIONS :    2, 0.86       3, 0.14
  1343 2908-42-357     42    357.0       2149.    
  1344 2908-48-356     48    356.0       2145.    
  1345 2908-55-342     55    342.0       2130.    
  1346 2908-66-26      66    26.00       2118.    
  1347 2908-71-335     71    335.0       2103.    
  1348 2879-55-342     55    342.0       2098.    
  1349 2879-61-40      61    40.00       2094.    
  1350 2879-66-19      66    19.00       2087.    
  1351 2879-71-335     71    335.0       2071.    
  1352 2878-66-26      66    26.00       2111.    
  1353 2878-71-335     71    335.0       2094.    
  1354 2897-1-274       1    274.0       2168.    
 Observation within a steady-state time step has been moved to the end of the time step.
  1355 2897-6-284       6    284.0       2163.    
  1356 2898-11-34      11    34.00       2156.    
  1357 2898-16-361     16    361.0       2147.    
  1358 2898-37-33      37    33.00       2120.    
  1359 2882-43-32      43    32.00       2090.    
  1360 2882-48-365     48    365.0       2088.    
  1361 2882-55-342     55    342.0       2079.    
  1362 2882-61-38      61    38.00       2073.    
  1363 2882-66-40      66    40.00       2061.    
  1364 2882-71-335     71    335.0       2048.    
  1365 2870-33-274     33    274.0       2085.    
  1366 2862-33-135     33    135.0       2110.    
  1367 2824-66-31      66    31.00       2077.    
  1368 2824-71-54      71    54.00       2069.    
  1369 2807-49-5       49    5.000       2134.    
  1370 2807-55-342     55    342.0       2112.    
  1371 2807-71-62      71    62.00       2078.    
  1372 2797-71-62      71    62.00       2081.    
  1373 2845-66-35      66    35.00       2167.    
  1374 2845-71-62      71    62.00       2154.    
  1375 2841-1-274       1    274.0       2225.    
 Observation within a steady-state time step has been moved to the end of the time step.
  1376 2841-6-284       6    284.0       2221.    
  1377 2841-11-34      11    34.00       2216.    
  1378 2841-16-361     16    361.0       2204.    
  1379 2841-38-91      38    91.00       2174.    
  1380 2841-39-91      39    91.00       2173.    
  1381 2841-42-364     42    364.0       2172.    
  1382 2841-48-336     48    336.0       2167.    
  1383 2815-56-24      56    24.00       2141.    
  1384 2801-33-52      33    52.00       2182.    
  1385 2844-43-6       43    6.000       2206.    
  1386 2844-48-334     48    334.0       2200.    
  1387 2844-56-19      56    19.00       2197.    
  1388 2844-66-34      66    34.00       2189.    
  1389 2844-71-61      71    61.00       2232.    
  1390 2819-56-17      56    17.00       2213.    
  1391 2825-56-19      56    19.00       2187.    
  1392 2825-66-35      66    35.00       2215.    
  1393 2794-33-62      33    62.00       2149.    
  1394 2791-42-356     42    356.0       2195.    
  1395 2791-48-337     48    337.0       2171.    
  1396 2791-61-61      61    61.00       2160.    
  1397 2791-66-26      66    26.00       2146.    
  1398 2806-42-356     42    356.0       2222.    
     MULTIPLE LAYERS AND PROPORTIONS :    2, 0.61       3, 0.39
  1399 2806-48-337     48    337.0       2214.    
     MULTIPLE LAYERS AND PROPORTIONS :    2, 0.61       3, 0.39
  1400 2840-43-5       43    5.000       2293.    
  1401 2840-48-334     48    334.0       2294.    
  1402 2840-56-19      56    19.00       2291.    
  1403 2840-61-56      61    56.00       2278.    
  1404 2840-66-32      66    32.00       2257.    
  1405 2827-66-32      66    32.00       2236.    
  1406 2827-71-61      71    61.00       2213.    
  1407 2813-66-26      66    26.00       2210.    
  1408 2813-71-323     71    323.0       2178.    
  1409 2814-42-357     42    357.0       2232.    
     MULTIPLE LAYERS AND PROPORTIONS :    2, 0.62       3, 0.38
  1410 2814-55-342     55    342.0       2222.    
     MULTIPLE LAYERS AND PROPORTIONS :    2, 0.62       3, 0.38
  1411 2814-61-35      61    35.00       2215.    
     MULTIPLE LAYERS AND PROPORTIONS :    2, 0.62       3, 0.38
  1412 2814-66-26      66    26.00       2200.    
     MULTIPLE LAYERS AND PROPORTIONS :    2, 0.62       3, 0.38
  1413 2804-42-357     42    357.0       2231.    
     MULTIPLE LAYERS AND PROPORTIONS :    2, 0.18       3, 0.82
  1414 2804-55-342     55    342.0       2222.    
     MULTIPLE LAYERS AND PROPORTIONS :    2, 0.18       3, 0.82
  1415 2804-61-35      61    35.00       2214.    
     MULTIPLE LAYERS AND PROPORTIONS :    2, 0.18       3, 0.82
  1416 2804-66-26      66    26.00       2199.    
     MULTIPLE LAYERS AND PROPORTIONS :    2, 0.18       3, 0.82
  1417 2812-42-335     42    335.0       2311.    
  1418 2812-48-355     48    355.0       2307.    
  1419 2812-55-342     55    342.0       2303.    
  1420 2812-61-35      61    35.00       2295.    
  1421 2812-71-323     71    323.0       2247.    
  1422 2765-42-357     42    357.0       2207.    
  1423 2765-48-355     48    355.0       2200.    
  1424 2765-55-342     55    342.0       2197.    
  1425 2765-61-35      61    35.00       2192.    
  1426 2765-66-26      66    26.00       2180.    
  1427 2765-71-323     71    323.0       2156.    
  1428 2728-8-69        8    69.00       2235.    
  1429 2719-42-357     42    357.0       2193.    
  1430 2719-48-356     48    356.0       2188.    
  1431 2719-55-343     55    343.0       2181.    
  1432 2726-42-357     42    357.0       2200.    
  1433 2726-48-355     48    355.0       2193.    
  1434 2726-55-342     55    342.0       2190.    
  1435 2726-61-35      61    35.00       2185.    
  1436 2726-66-26      66    26.00       2173.    
  1437 2726-71-323     71    323.0       2151.    
  1438 2784-71-62      71    62.00       2079.    
  1439 2730-56-24      56    24.00       2146.    
  1440 2730-61-54      61    54.00       2138.    
  1441 2730-66-18      66    18.00       2121.    
  1442 2781-16-361     16    361.0       2176.    
  1443 2782-17-7       17    7.000       2174.    
  1444 2782-71-62      71    62.00       2077.    
  1445 2762-48-338     48    338.0       2121.    
  1446 2785-56-23      56    23.00       2118.    
  1447 2785-66-19      66    19.00       2086.    
  1448 2757-56-24      56    24.00       2116.    
  1449 2757-66-19      66    19.00       2086.    
  1450 2763-56-24      56    24.00       2114.    
  1451 2763-66-19      66    19.00       2080.    
  1452 2729-56-24      56    24.00       2122.    
  1453 2729-66-18      66    18.00       2088.    
  1454 2720-16-298     16    298.0       2169.    
  1455 2720-22-31      22    31.00       2162.    
  1456 2706-66-35      66    35.00       2088.    
  1457 2710-56-24      56    24.00       2141.    
  1458 2755-56-23      56    23.00       2094.    
  1459 2755-61-54      61    54.00       2084.    
  1460 2755-66-18      66    18.00       2074.    
  1461 2735-1-365       1    365.0       2237.    
 Observation within a steady-state time step has been moved to the end of the time step.
  1462 2778-33-182     33    182.0       2092.    
  1463 2759-34-121     34    121.0       2105.    
  1464 2738-66-26      66    26.00       2051.    
  1465 2738-71-348     71    348.0       2053.    
  1466 2733-10-280     10    280.0       2107.    
  1467 2733-22-19      22    19.00       2094.    
  1468 2733-42-362     42    362.0       2087.    
  1469 2733-48-362     48    362.0       2085.    
  1470 2733-55-342     55    342.0       2082.    
  1471 2733-61-38      61    38.00       2071.    
  1472 2733-66-40      66    40.00       2050.    
  1473 2733-71-348     71    348.0       2045.    
  1474 2698-49-8       49    8.000       2085.    
  1475 2698-55-342     55    342.0       2092.    
  1476 2698-61-10      61    10.00       2091.    
  1477 2698-71-348     71    348.0       2053.    
  1478 2665-42-362     42    362.0       2093.    
     MULTIPLE LAYERS AND PROPORTIONS :    1, 0.14       2, 0.86
  1479 2665-48-362     48    362.0       2091.    
     MULTIPLE LAYERS AND PROPORTIONS :    1, 0.14       2, 0.86
  1480 2665-55-342     55    342.0       2098.    
     MULTIPLE LAYERS AND PROPORTIONS :    1, 0.14       2, 0.86
  1481 2665-61-4       61    4.000       2086.    
     MULTIPLE LAYERS AND PROPORTIONS :    1, 0.14       2, 0.86
  1482 2665-66-26      66    26.00       2056.    
     MULTIPLE LAYERS AND PROPORTIONS :    1, 0.14       2, 0.86
  1483 2665-71-348     71    348.0       2061.    
     MULTIPLE LAYERS AND PROPORTIONS :    1, 0.14       2, 0.86
  1484 2664-1-360       1    360.0       2134.    
 Observation within a steady-state time step has been moved to the end of the time step.
  1485 2664-6-341       6    341.0       2125.    
  1486 2662-42-362     42    362.0       2094.    
  1487 2662-48-361     48    361.0       2091.    
  1488 2662-55-342     55    342.0       2094.    
  1489 2662-71-348     71    348.0       2057.    
  1490 2659-55-342     55    342.0       2093.    
  1491 2659-61-11      61    11.00       2063.    
  1492 2659-66-26      66    26.00       2057.    
  1493 2659-71-348     71    348.0       2060.    
  1494 2658-1-92        1    92.00       2100.    
 Observation within a steady-state time step has been moved to the end of the time step.
  1495 2742-17-3       17    3.000       2141.    
  1496 2742-22-1       22    1.000       2140.    
  1497 2742-38-91      38    91.00       2123.    
  1498 2742-56-24      56    24.00       2107.    
  1499 2742-61-54      61    54.00       2093.    
  1500 2742-66-31      66    31.00       2068.    
  1501 2742-71-62      71    62.00       2064.    
  1502 2683-42-362     42    362.0       2093.    
  1503 2683-48-362     48    362.0       2090.    
  1504 2683-55-342     55    342.0       2081.    
  1505 2683-61-32      61    32.00       2079.    
  1506 2683-66-40      66    40.00       2053.    
  1507 2686-1-274       1    274.0       2157.    
 Observation within a steady-state time step has been moved to the end of the time step.
  1508 2686-6-283       6    283.0       2150.    
  1509 2686-10-280     10    280.0       2137.    
  1510 2666-1-274       1    274.0       2111.    
 Observation within a steady-state time step has been moved to the end of the time step.
  1511 2666-6-283       6    283.0       2101.    
  1512 2670-17-3       17    3.000       2140.    
  1513 2670-22-31      22    31.00       2138.    
  1514 2670-31-351     31    351.0       2129.    
  1515 2670-36-50      36    50.00       2126.    
  1516 2670-42-352     42    352.0       2116.    
  1517 2670-56-24      56    24.00       2108.    
  1518 2670-61-54      61    54.00       2091.    
  1519 2670-66-33      66    33.00       2063.    
  1520 2670-71-62      71    62.00       2070.    
  1521 2703-36-244     36    244.0       2194.    
  1522 2703-48-355     48    355.0       2189.    
  1523 2703-55-343     55    343.0       2184.    
  1524 2703-61-35      61    35.00       2180.    
  1525 2703-66-19      66    19.00       2178.    
  1526 2703-71-323     71    323.0       2147.    
  1527 2680-71-61      71    61.00       2159.    
  1528 2704-42-335     42    335.0       2188.    
  1529 2704-48-356     48    356.0       2184.    
  1530 2672-42-356     42    356.0       2170.    
  1531 2672-66-33      66    33.00       2154.    
  1532 2672-71-63      71    63.00       2142.    
  1533 2657-42-356     42    356.0       2158.    
  1534 2657-66-33      66    33.00       2152.    
  1535 2685-42-356     42    356.0       2197.    
  1536 2685-48-355     48    355.0       2193.    
  1537 2685-55-343     55    343.0       2186.    
  1538 2685-61-35      61    35.00       2183.    
  1539 2685-66-26      66    26.00       2173.    
  1540 2685-71-323     71    323.0       2154.    
  1541 2983-16-361     16    361.0       2632.    
  1542 2983-22-31      22    31.00       2610.    
  1543 2983-27-11      27    11.00       2618.    
  1544 2980-43-8       43    8.000       2567.    
  1545 2980-48-334     48    334.0       2581.    
  1546 2980-56-24      56    24.00       2581.    
  1547 2990-16-361     16    361.0       2525.    
  1548 2990-48-337     48    337.0       2544.    
  1549 2990-56-24      56    24.00       2562.    
  1550 2956-2-85        2    85.00       2545.    
  1551 2956-6-284       6    284.0       2530.    
  1552 2956-12-261     12    261.0       2511.    
  1553 2956-16-133     16    133.0       2520.    
  1554 2956-26-124     26    124.0       2513.    
  1555 2956-37-34      37    34.00       2520.    
  1556 2956-43-5       43    5.000       2537.    
  1557 2956-48-334     48    334.0       2551.    
  1558 2956-56-27      56    27.00       2553.    
  1559 2956-66-35      66    35.00       2495.    
  1560 2956-71-12      71    12.00       2500.    
  1561 2956-71-365     71    365.0       2513.    
  1562 2931-11-62      11    62.00       2429.    
  1563 2931-16-361     16    361.0       2420.    
  1564 2931-22-31      22    31.00       2415.    
  1565 2635-56-25      56    25.00       1731.    
  1566 2595-16-355     16    355.0       1833.    
  1567 2595-48-349     48    349.0       1721.    
  1568 2595-55-355     55    355.0       1728.    
  1569 2595-61-4       61    4.000       1733.    
  1570 2595-66-47      66    47.00       1743.    
  1571 2595-71-5       71    5.000       1753.    
  1572 2595-71-365     71    365.0       1755.    
  1573 2594-48-350     48    350.0       1725.    
     MULTIPLE LAYERS AND PROPORTIONS :    2, 0.12       3, 0.88
  1574 2594-55-355     55    355.0       1732.    
     MULTIPLE LAYERS AND PROPORTIONS :    2, 0.12       3, 0.88
  1575 2594-66-47      66    47.00       1746.    
     MULTIPLE LAYERS AND PROPORTIONS :    2, 0.12       3, 0.88
  1576 2594-71-5       71    5.000       1757.    
     MULTIPLE LAYERS AND PROPORTIONS :    2, 0.12       3, 0.88
  1577 2594-71-365     71    365.0       1760.    
     MULTIPLE LAYERS AND PROPORTIONS :    2, 0.12       3, 0.88
  1578 2599-66-47      66    47.00       1746.    
  1579 2599-71-5       71    5.000       1756.    
  1580 2599-71-365     71    365.0       1758.    
  1581 2596-42-351     42    351.0       1713.    
     MULTIPLE LAYERS AND PROPORTIONS :    2, 0.12       3, 0.88
  1582 2596-48-349     48    349.0       1721.    
     MULTIPLE LAYERS AND PROPORTIONS :    2, 0.12       3, 0.88
  1583 2596-55-355     55    355.0       1728.    
     MULTIPLE LAYERS AND PROPORTIONS :    2, 0.12       3, 0.88
  1584 2596-61-4       61    4.000       1733.    
     MULTIPLE LAYERS AND PROPORTIONS :    2, 0.12       3, 0.88
  1585 2596-66-34      66    34.00       1742.    
     MULTIPLE LAYERS AND PROPORTIONS :    2, 0.12       3, 0.88
  1586 2596-71-5       71    5.000       1753.    
  1587 2596-71-365     71    365.0       1755.    
  1588 2591-56-3       56    3.000       1728.    
  1589 2591-61-4       61    4.000       1732.    
  1590 2591-66-34      66    34.00       1742.    
  1591 2591-71-5       71    5.000       1753.    
  1592 2591-71-365     71    365.0       1755.    
  1593 2588-42-351     42    351.0       1710.    
  1594 2588-48-349     48    349.0       1715.    
  1595 2588-55-355     55    355.0       1722.    
  1596 2588-61-4       61    4.000       1726.    
  1597 2588-66-47      66    47.00       1736.    
  1598 2588-71-4       71    4.000       1746.    
  1599 2588-71-365     71    365.0       1749.    
  1600 2564-12-171     12    171.0       1866.    
  1601 2564-16-355     16    355.0       1833.    
  1602 2564-22-37      22    37.00       1807.    
  1603 2530-42-351     42    351.0       1722.    
     MULTIPLE LAYERS AND PROPORTIONS :    2, 0.05       3, 0.95
  1604 2530-48-349     48    349.0       1730.    
     MULTIPLE LAYERS AND PROPORTIONS :    2, 0.05       3, 0.95
  1605 2530-55-355     55    355.0       1739.    
     MULTIPLE LAYERS AND PROPORTIONS :    2, 0.05       3, 0.95
  1606 2530-61-6       61    6.000       1743.    
     MULTIPLE LAYERS AND PROPORTIONS :    2, 0.05       3, 0.95
  1607 2530-66-47      66    47.00       1754.    
     MULTIPLE LAYERS AND PROPORTIONS :    2, 0.05       3, 0.95
  1608 2530-71-5       71    5.000       1764.    
  1609 2530-71-365     71    365.0       1766.    
  1610 2529-17-6       17    6.000       1844.    
  1611 2529-56-24      56    24.00       1737.    
  1612 2529-61-52      61    52.00       1742.    
  1613 2529-66-19      66    19.00       1751.    
  1614 2587-1-105       1    105.0       1880.    
 Observation within a steady-state time step has been moved to the end of the time step.
  1615 2587-7-3         7    3.000       1880.    
  1616 2449-32-85      32    85.00       1798.    
  1617 2492-48-349     48    349.0       1742.    
     MULTIPLE LAYERS AND PROPORTIONS :    2, 0.26       3, 0.74
  1618 2492-61-4       61    4.000       1757.    
     MULTIPLE LAYERS AND PROPORTIONS :    2, 0.26       3, 0.74
  1619 2492-66-39      66    39.00       1766.    
     MULTIPLE LAYERS AND PROPORTIONS :    2, 0.26       3, 0.74
  1620 2492-71-6       71    6.000       1776.    
  1621 2492-71-365     71    365.0       1779.    
  1622 2491-56-3       56    3.000       1769.    
  1623 2491-61-6       61    6.000       1771.    
  1624 2491-66-39      66    39.00       1779.    
  1625 2491-71-6       71    6.000       1788.    
  1626 2491-71-365     71    365.0       1789.    
  1627 2450-48-349     48    349.0       1771.    
     MULTIPLE LAYERS AND PROPORTIONS :    2, 0.28       3, 0.72
  1628 2450-55-354     55    354.0       1777.    
     MULTIPLE LAYERS AND PROPORTIONS :    2, 0.28       3, 0.72
  1629 2450-61-4       61    4.000       1779.    
     MULTIPLE LAYERS AND PROPORTIONS :    2, 0.28       3, 0.72
  1630 2450-66-39      66    39.00       1785.    
     MULTIPLE LAYERS AND PROPORTIONS :    2, 0.28       3, 0.72
  1631 2450-71-6       71    6.000       1795.    
  1632 2450-71-365     71    365.0       1796.    
  1633 2451-48-349     48    349.0       1763.    
     MULTIPLE LAYERS AND PROPORTIONS :    2, 0.31       3, 0.69
  1634 2451-55-355     55    355.0       1771.    
     MULTIPLE LAYERS AND PROPORTIONS :    2, 0.31       3, 0.69
  1635 2451-61-4       61    4.000       1774.    
     MULTIPLE LAYERS AND PROPORTIONS :    2, 0.31       3, 0.69
  1636 2451-66-27      66    27.00       1778.    
     MULTIPLE LAYERS AND PROPORTIONS :    2, 0.31       3, 0.69
  1637 2451-71-6       71    6.000       1788.    
  1638 2451-71-365     71    365.0       1790.    
  1639 2442-48-348     48    348.0       1728.    
  1640 2442-56-23      56    23.00       1738.    
  1641 2442-60-319     60    319.0       1740.    
  1642 2442-66-26      66    26.00       1748.    
  1643 2442-71-11      71    11.00       1762.    
  1644 2452-12-171     12    171.0       1883.    
  1645 2452-16-314     16    314.0       1834.    
  1646 2452-32-85      32    85.00       1756.    
  1647 2452-35-53      35    53.00       1745.    
  1648 2390-42-351     42    351.0       1719.    
  1649 2390-48-349     48    349.0       1727.    
  1650 2390-55-355     55    355.0       1736.    
  1651 2390-66-47      66    47.00       1751.    
  1652 2390-71-6       71    6.000       1762.    
  1653 2390-71-365     71    365.0       1764.    
  1654 2303-42-351     42    351.0       1724.    
     MULTIPLE LAYERS AND PROPORTIONS :    2, 0.07       3, 0.93
  1655 2303-48-349     48    349.0       1730.    
     MULTIPLE LAYERS AND PROPORTIONS :    2, 0.07       3, 0.93
  1656 2303-55-355     55    355.0       1738.    
     MULTIPLE LAYERS AND PROPORTIONS :    2, 0.07       3, 0.93
  1657 2303-61-4       61    4.000       1743.    
     MULTIPLE LAYERS AND PROPORTIONS :    2, 0.07       3, 0.93
  1658 2303-66-47      66    47.00       1752.    
     MULTIPLE LAYERS AND PROPORTIONS :    2, 0.07       3, 0.93
  1659 2303-71-6       71    6.000       1763.    
  1660 2303-71-365     71    365.0       1765.    
  1661 2417-56-24      56    24.00       1738.    
  1662 2417-61-54      61    54.00       1743.    
  1663 2411-56-24      56    24.00       1738.    
  1664 2411-61-54      61    54.00       1743.    
  1665 2259-42-352     42    352.0       1727.    
  1666 2259-56-3       56    3.000       1745.    
  1667 2296-22-38      22    38.00       1830.    
     MULTIPLE LAYERS AND PROPORTIONS :    2, 0.10       3, 0.90
  1668 2296-42-352     42    352.0       1741.    
     MULTIPLE LAYERS AND PROPORTIONS :    2, 0.10       3, 0.90
  1669 2296-48-350     48    350.0       1751.    
     MULTIPLE LAYERS AND PROPORTIONS :    2, 0.10       3, 0.90
  1670 2296-55-354     55    354.0       1759.    
     MULTIPLE LAYERS AND PROPORTIONS :    2, 0.10       3, 0.90
  1671 2296-61-6       61    6.000       1764.    
     MULTIPLE LAYERS AND PROPORTIONS :    2, 0.10       3, 0.90
  1672 2296-66-39      66    39.00       1772.    
     MULTIPLE LAYERS AND PROPORTIONS :    2, 0.10       3, 0.90
  1673 2296-71-6       71    6.000       1781.    
  1674 2296-71-365     71    365.0       1782.    
  1675 2302-48-350     48    350.0       1777.    
     MULTIPLE LAYERS AND PROPORTIONS :    2, 0.29       3, 0.71
  1676 2302-55-354     55    354.0       1777.    
     MULTIPLE LAYERS AND PROPORTIONS :    2, 0.29       3, 0.71
  1677 2302-61-6       61    6.000       1789.    
     MULTIPLE LAYERS AND PROPORTIONS :    2, 0.29       3, 0.71
  1678 2302-66-32      66    32.00       1790.    
     MULTIPLE LAYERS AND PROPORTIONS :    2, 0.29       3, 0.71
  1679 2302-71-6       71    6.000       1799.    
  1680 2302-71-365     71    365.0       1800.    
  1681 2301-37-33      37    33.00       1770.    
     MULTIPLE LAYERS AND PROPORTIONS :    2, 0.27       3, 0.73
  1682 2301-42-352     42    352.0       1779.    
     MULTIPLE LAYERS AND PROPORTIONS :    2, 0.27       3, 0.73
  1683 2301-48-349     48    349.0       1792.    
     MULTIPLE LAYERS AND PROPORTIONS :    2, 0.27       3, 0.73
  1684 2301-55-354     55    354.0       1797.    
     MULTIPLE LAYERS AND PROPORTIONS :    2, 0.27       3, 0.73
  1685 2301-66-1       66    1.000       1802.    
     MULTIPLE LAYERS AND PROPORTIONS :    2, 0.27       3, 0.73
  1686 2301-71-6       71    6.000       1809.    
     MULTIPLE LAYERS AND PROPORTIONS :    2, 0.27       3, 0.73
  1687 2301-71-365     71    365.0       1811.    
     MULTIPLE LAYERS AND PROPORTIONS :    2, 0.27       3, 0.73
  1688 2440-55-354     55    354.0       1790.    
  1689 2440-61-6       61    6.000       1793.    
  1690 2440-65-342     65    342.0       1796.    
  1691 2440-71-6       71    6.000       1808.    
  1692 2440-71-365     71    365.0       1809.    
  1693 2300-16-354     16    354.0       1887.    
     MULTIPLE LAYERS AND PROPORTIONS :    2, 0.44       3, 0.56
  1694 2300-48-350     48    350.0       1798.    
     MULTIPLE LAYERS AND PROPORTIONS :    2, 0.44       3, 0.56
  1695 2300-55-355     55    355.0       1805.    
     MULTIPLE LAYERS AND PROPORTIONS :    2, 0.44       3, 0.56
  1696 2300-61-6       61    6.000       1809.    
     MULTIPLE LAYERS AND PROPORTIONS :    2, 0.44       3, 0.56
  1697 2300-65-341     65    341.0       1808.    
     MULTIPLE LAYERS AND PROPORTIONS :    2, 0.44       3, 0.56
  1698 2300-71-7       71    7.000       1820.    
     MULTIPLE LAYERS AND PROPORTIONS :    2, 0.44       3, 0.56
  1699 2300-71-365     71    365.0       1820.    
  1700 2220-12-311     12    311.0       1928.    
     MULTIPLE LAYERS AND PROPORTIONS :    2, 0.13       3, 0.87
  1701 2220-16-356     16    356.0       1891.    
     MULTIPLE LAYERS AND PROPORTIONS :    2, 0.13       3, 0.87
  1702 2220-48-350     48    350.0       1810.    
     MULTIPLE LAYERS AND PROPORTIONS :    2, 0.13       3, 0.87
  1703 2220-55-354     55    354.0       1812.    
     MULTIPLE LAYERS AND PROPORTIONS :    2, 0.13       3, 0.87
  1704 2220-61-7       61    7.000       1815.    
     MULTIPLE LAYERS AND PROPORTIONS :    2, 0.13       3, 0.87
  1705 2220-66-39      66    39.00       1812.    
     MULTIPLE LAYERS AND PROPORTIONS :    2, 0.13       3, 0.87
  1706 2220-71-7       71    7.000       1827.    
     MULTIPLE LAYERS AND PROPORTIONS :    2, 0.13       3, 0.87
  1707 2220-71-365     71    365.0       1826.    
  1708 2222-55-354     55    354.0       1806.    
     MULTIPLE LAYERS AND PROPORTIONS :    2, 0.07       3, 0.93
  1709 2222-61-6       61    6.000       1815.    
     MULTIPLE LAYERS AND PROPORTIONS :    2, 0.07       3, 0.93
  1710 2222-65-341     65    341.0       1809.    
     MULTIPLE LAYERS AND PROPORTIONS :    2, 0.07       3, 0.93
  1711 2222-71-7       71    7.000       1822.    
     MULTIPLE LAYERS AND PROPORTIONS :    2, 0.07       3, 0.93
  1712 2222-71-365     71    365.0       1821.    
  1713 2096-48-350     48    350.0       1816.    
     MULTIPLE LAYERS AND PROPORTIONS :    2, 0.42       3, 0.58
  1714 2096-55-354     55    354.0       1818.    
     MULTIPLE LAYERS AND PROPORTIONS :    2, 0.42       3, 0.58
  1715 2096-61-6       61    6.000       1824.    
     MULTIPLE LAYERS AND PROPORTIONS :    2, 0.42       3, 0.58
  1716 2096-65-343     65    343.0       1814.    
     MULTIPLE LAYERS AND PROPORTIONS :    2, 0.42       3, 0.58
  1717 2096-71-7       71    7.000       1828.    
     MULTIPLE LAYERS AND PROPORTIONS :    2, 0.42       3, 0.58
  1718 2096-71-365     71    365.0       1827.    
  1719 2089-12-171     12    171.0       1917.    
     MULTIPLE LAYERS AND PROPORTIONS :    2, 0.14       3, 0.86
  1720 2089-42-352     42    352.0       1788.    
     MULTIPLE LAYERS AND PROPORTIONS :    2, 0.14       3, 0.86
  1721 2089-48-350     48    350.0       1796.    
     MULTIPLE LAYERS AND PROPORTIONS :    2, 0.14       3, 0.86
  1722 2089-55-354     55    354.0       1801.    
     MULTIPLE LAYERS AND PROPORTIONS :    2, 0.14       3, 0.86
  1723 2089-61-6       61    6.000       1803.    
     MULTIPLE LAYERS AND PROPORTIONS :    2, 0.14       3, 0.86
  1724 2089-66-55      66    55.00       1803.    
     MULTIPLE LAYERS AND PROPORTIONS :    2, 0.14       3, 0.86
  1725 2089-71-6       71    6.000       1809.    
  1726 2089-71-365     71    365.0       1810.    
  1727 2088-42-352     42    352.0       1799.    
     MULTIPLE LAYERS AND PROPORTIONS :    2, 0.17       3, 0.83
  1728 2088-48-350     48    350.0       1807.    
     MULTIPLE LAYERS AND PROPORTIONS :    2, 0.17       3, 0.83
  1729 2088-55-354     55    354.0       1811.    
     MULTIPLE LAYERS AND PROPORTIONS :    2, 0.17       3, 0.83
  1730 2088-61-6       61    6.000       1813.    
     MULTIPLE LAYERS AND PROPORTIONS :    2, 0.17       3, 0.83
  1731 2088-66-48      66    48.00       1811.    
     MULTIPLE LAYERS AND PROPORTIONS :    2, 0.17       3, 0.83
  1732 2088-71-6       71    6.000       1818.    
  1733 2088-71-365     71    365.0       1819.    
  1734 2620-61-53      61    53.00       1751.    
  1735 2620-66-28      66    28.00       1754.    
  1736 2630-1-86        1    86.00       1889.    
 Observation within a steady-state time step has been moved to the end of the time step.
  1737 2615-21-353     21    353.0       1856.    
  1738 2615-27-20      27    20.00       1833.    
  1739 2615-36-64      36    64.00       1802.    
  1740 2615-42-350     42    350.0       1766.    
  1741 2618-56-23      56    23.00       1750.    
  1742 2618-61-53      61    53.00       1751.    
  1743 2618-66-28      66    28.00       1753.    
  1744 2616-1-109       1    109.0       1890.    
 Observation within a steady-state time step has been moved to the end of the time step.
  1745 2616-7-10        7    10.00       1889.    
  1746 2616-10-319     10    319.0       1878.    
  1747 2607-56-23      56    23.00       1754.    
  1748 2607-61-53      61    53.00       1751.    
  1749 2607-66-28      66    28.00       1752.    
  1750 2578-2-305       2    305.0       1903.    
  1751 2582-1-105       1    105.0       1898.    
 Observation within a steady-state time step has been moved to the end of the time step.
  1752 2577-56-23      56    23.00       1757.    
  1753 2577-61-53      61    53.00       1758.    
  1754 2577-66-28      66    28.00       1760.    
  1755 2573-56-27      56    27.00       1759.    
  1756 2553-33-188     33    188.0       1780.    
  1757 2553-56-27      56    27.00       1769.    
  1758 2574-1-107       1    107.0       1894.    
 Observation within a steady-state time step has been moved to the end of the time step.
  1759 2580-1-109       1    109.0       1894.    
 Observation within a steady-state time step has been moved to the end of the time step.
  1760 2571-21-354     21    354.0       1857.    
  1761 2498-37-34      37    34.00       1812.    
  1762 2498-42-350     42    350.0       1797.    
  1763 2519-56-23      56    23.00       1776.    
  1764 2507-48-300     48    300.0       1781.    
  1765 2507-55-318     55    318.0       1786.    
  1766 2507-60-313     60    313.0       1786.    
  1767 2507-65-364     65    364.0       1792.    
  1768 2507-71-350     71    350.0       1807.    
  1769 2508-48-300     48    300.0       1780.    
  1770 2508-55-318     55    318.0       1782.    
  1771 2508-60-313     60    313.0       1782.    
  1772 2508-65-364     65    364.0       1788.    
  1773 2508-71-350     71    350.0       1808.    
  1774 2448-56-25      56    25.00       1795.    
  1775 2448-61-52      61    52.00       1799.    
  1776 2448-66-20      66    20.00       1803.    
  1777 2311-56-23      56    23.00       1817.    
  1778 2311-61-53      61    53.00       1822.    
  1779 2311-66-28      66    28.00       1823.    
  1780 2084-2-305       2    305.0       1948.    
  1781 2099-42-352     42    352.0       1819.    
     MULTIPLE LAYERS AND PROPORTIONS :    2, 0.43       3, 0.57
  1782 2099-48-365     48    365.0       1824.    
     MULTIPLE LAYERS AND PROPORTIONS :    2, 0.43       3, 0.57
  1783 2099-55-354     55    354.0       1826.    
     MULTIPLE LAYERS AND PROPORTIONS :    2, 0.43       3, 0.57
  1784 2099-61-7       61    7.000       1837.    
     MULTIPLE LAYERS AND PROPORTIONS :    2, 0.43       3, 0.57
  1785 2099-65-344     65    344.0       1824.    
     MULTIPLE LAYERS AND PROPORTIONS :    2, 0.43       3, 0.57
  1786 2099-71-365     71    365.0       1840.    
     MULTIPLE LAYERS AND PROPORTIONS :    2, 0.43       3, 0.57
  1787 2087-71-365     71    365.0       1825.    
  1788 2110-71-365     71    365.0       1844.    
  1789 2040-65-364     65    364.0       1850.    
  1790 2040-71-365     71    365.0       1864.    
  1791 2034-65-364     65    364.0       1830.    
  1792 2034-71-12      71    12.00       1876.    
  1793 2034-71-365     71    365.0       1838.    
  1794 2009-71-8       71    8.000       1870.    
  1795 2009-71-365     71    365.0       1858.    
  1796 2008-71-8       71    8.000       1845.    
  1797 2008-71-365     71    365.0       1838.    
  1798 1923-16-315     16    315.0       1894.    
     MULTIPLE LAYERS AND PROPORTIONS :    2, 0.40       3, 0.60
  1799 1923-22-38      22    38.00       1884.    
     MULTIPLE LAYERS AND PROPORTIONS :    2, 0.40       3, 0.60
  1800 1923-27-24      27    24.00       1863.    
     MULTIPLE LAYERS AND PROPORTIONS :    2, 0.40       3, 0.60
  1801 1923-32-85      32    85.00       1840.    
     MULTIPLE LAYERS AND PROPORTIONS :    2, 0.40       3, 0.60
  1802 1923-36-1       36    1.000       1840.    
     MULTIPLE LAYERS AND PROPORTIONS :    2, 0.40       3, 0.60
  1803 1923-42-352     42    352.0       1841.    
     MULTIPLE LAYERS AND PROPORTIONS :    2, 0.40       3, 0.60
  1804 1923-48-348     48    348.0       1841.    
     MULTIPLE LAYERS AND PROPORTIONS :    2, 0.40       3, 0.60
  1805 1923-55-354     55    354.0       1840.    
     MULTIPLE LAYERS AND PROPORTIONS :    2, 0.40       3, 0.60
  1806 1923-60-323     60    323.0       1856.    
     MULTIPLE LAYERS AND PROPORTIONS :    2, 0.40       3, 0.60
  1807 1923-65-343     65    343.0       1828.    
     MULTIPLE LAYERS AND PROPORTIONS :    2, 0.40       3, 0.60
  1808 1923-71-8       71    8.000       1848.    
     MULTIPLE LAYERS AND PROPORTIONS :    2, 0.40       3, 0.60
  1809 1923-71-365     71    365.0       1844.    
     MULTIPLE LAYERS AND PROPORTIONS :    2, 0.40       3, 0.60
  1810 1914-55-354     55    354.0       1840.    
  1811 1914-61-7       61    7.000       1855.    
  1812 1914-71-8       71    8.000       1848.    
  1813 1919-71-8       71    8.000       1853.    
  1814 1914-71-365     71    365.0       1844.    
  1815 1919-71-365     71    365.0       1847.    
  1816 1938-65-364     65    364.0       1848.    
  1817 1960-65-364     65    364.0       1842.    
  1818 1922-12-171     12    171.0       1950.    
     MULTIPLE LAYERS AND PROPORTIONS :    2, 0.39       3, 0.61
  1819 1922-42-352     42    352.0       1846.    
     MULTIPLE LAYERS AND PROPORTIONS :    2, 0.39       3, 0.61
  1820 1922-48-349     48    349.0       1847.    
     MULTIPLE LAYERS AND PROPORTIONS :    2, 0.39       3, 0.61
  1821 1922-55-354     55    354.0       1846.    
     MULTIPLE LAYERS AND PROPORTIONS :    2, 0.39       3, 0.61
  1822 1922-61-7       61    7.000       1873.    
     MULTIPLE LAYERS AND PROPORTIONS :    2, 0.39       3, 0.61
  1823 1922-71-8       71    8.000       1884.    
     MULTIPLE LAYERS AND PROPORTIONS :    2, 0.39       3, 0.61
  1824 1922-71-365     71    365.0       1872.    
  1825 1918-10-108     10    108.0       1955.    
  1826 1918-66-32      66    32.00       1850.    
  1827 1918-71-8       71    8.000       1881.    
  1828 1918-71-365     71    365.0       1866.    
  1829 1959-71-8       71    8.000       1888.    
  1830 1959-71-365     71    365.0       1873.    
  1831 1944-71-365     71    365.0       1882.    
  1832 1988-35-4       35    4.000       1872.    
     MULTIPLE LAYERS AND PROPORTIONS :    2, 0.38       3, 0.62
  1833 1908-56-18      56    18.00       1862.    
  1834 1908-66-18      66    18.00       1848.    
  1835 2638-33-46      33    46.00       2108.    
  1836 2648-35-95      35    95.00       2092.    
     MULTIPLE LAYERS AND PROPORTIONS :    1, 0.27       2, 0.73
  1837 2627-48-336     48    336.0       2088.    
     MULTIPLE LAYERS AND PROPORTIONS :    1, 0.31       2, 0.69
  1838 2619-2-1         2    1.000       2145.    
     MULTIPLE LAYERS AND PROPORTIONS :    1, 0.73       2, 0.27
  1839 2642-12-43      12    43.00       2100.    
  1840 2649-17-23      17    23.00       2099.    
     MULTIPLE LAYERS AND PROPORTIONS :    1, 0.55       2, 0.45
  1841 2649-22-20      22    20.00       2098.    
     MULTIPLE LAYERS AND PROPORTIONS :    1, 0.55       2, 0.45
  1842 2649-42-363     42    363.0       2087.    
     MULTIPLE LAYERS AND PROPORTIONS :    1, 0.55       2, 0.45
  1843 2649-48-336     48    336.0       2084.    
     MULTIPLE LAYERS AND PROPORTIONS :    1, 0.55       2, 0.45
  1844 2649-56-20      56    20.00       2111.    
     MULTIPLE LAYERS AND PROPORTIONS :    1, 0.55       2, 0.45
  1845 2649-61-55      61    55.00       2081.    
     MULTIPLE LAYERS AND PROPORTIONS :    1, 0.55       2, 0.45
  1846 2628-1-365       1    365.0       2129.    
 Observation within a steady-state time step has been moved to the end of the time step.
  1847 2650-71-350     71    350.0       2071.    
  1848 2655-42-362     42    362.0       2084.    
  1849 2655-48-362     48    362.0       2083.    
  1850 2655-55-343     55    343.0       2093.    
  1851 2655-61-40      61    40.00       2080.    
  1852 2655-66-55      66    55.00       2057.    
  1853 2655-71-350     71    350.0       2061.    
  1854 2604-61-55      61    55.00       2078.    
  1855 2626-22-20      22    20.00       2106.    
     MULTIPLE LAYERS AND PROPORTIONS :    1, 0.37       2, 0.48       3, 0.15
  1856 2626-32-42      32    42.00       2110.    
     MULTIPLE LAYERS AND PROPORTIONS :    1, 0.37       2, 0.48       3, 0.15
  1857 2623-8-279       8    279.0       2109.    
  1858 2623-12-32      12    32.00       2110.    
  1859 2623-17-22      17    22.00       2109.    
  1860 2623-22-1       22    1.000       2104.    
  1861 2623-27-34      27    34.00       2113.    
  1862 2608-12-43      12    43.00       2113.    
  1863 2608-17-23      17    23.00       2111.    
  1864 2608-22-20      22    20.00       2105.    
  1865 2608-32-42      32    42.00       2110.    
  1866 2629-3-217       3    217.0       2124.    
  1867 2606-56-26      56    26.00       2123.    
  1868 2606-61-55      61    55.00       2120.    
  1869 2606-66-20      66    20.00       2114.    
  1870 2592-12-43      12    43.00       2137.    
     MULTIPLE LAYERS AND PROPORTIONS :    1, 0.71       2, 0.29
  1871 2592-17-23      17    23.00       2133.    
     MULTIPLE LAYERS AND PROPORTIONS :    1, 0.71       2, 0.29
  1872 2592-22-23      22    23.00       2125.    
     MULTIPLE LAYERS AND PROPORTIONS :    1, 0.71       2, 0.29
  1873 2592-42-364     42    364.0       2123.    
     MULTIPLE LAYERS AND PROPORTIONS :    1, 0.71       2, 0.29
  1874 2592-48-336     48    336.0       2115.    
     MULTIPLE LAYERS AND PROPORTIONS :    1, 0.71       2, 0.29
  1875 2592-56-20      56    20.00       2137.    
     MULTIPLE LAYERS AND PROPORTIONS :    1, 0.71       2, 0.29
  1876 2592-61-55      61    55.00       2113.    
     MULTIPLE LAYERS AND PROPORTIONS :    1, 0.71       2, 0.29
  1877 2603-27-15      27    15.00       2121.    
     MULTIPLE LAYERS AND PROPORTIONS :    1, 0.75       2, 0.25
  1878 2603-42-362     42    362.0       2104.    
     MULTIPLE LAYERS AND PROPORTIONS :    1, 0.75       2, 0.25
  1879 2603-48-336     48    336.0       2101.    
     MULTIPLE LAYERS AND PROPORTIONS :    1, 0.75       2, 0.25
  1880 2603-55-343     55    343.0       2114.    
     MULTIPLE LAYERS AND PROPORTIONS :    1, 0.75       2, 0.25
  1881 2603-61-40      61    40.00       2099.    
     MULTIPLE LAYERS AND PROPORTIONS :    1, 0.75       2, 0.25
  1882 2603-65-343     65    343.0       2064.    
     MULTIPLE LAYERS AND PROPORTIONS :    1, 0.75       2, 0.25
  1883 2603-71-47      71    47.00       2078.    
     MULTIPLE LAYERS AND PROPORTIONS :    1, 0.75       2, 0.25
  1884 2603-71-350     71    350.0       2074.    
     MULTIPLE LAYERS AND PROPORTIONS :    1, 0.75       2, 0.25
  1885 2593-1-365       1    365.0       2142.    
 Observation within a steady-state time step has been moved to the end of the time step.
  1886 2558-22-23      22    23.00       2120.    
     MULTIPLE LAYERS AND PROPORTIONS :    1, 0.23       2, 0.77
  1887 2558-27-35      27    35.00       2127.    
     MULTIPLE LAYERS AND PROPORTIONS :    1, 0.23       2, 0.77
  1888 2558-42-362     42    362.0       2113.    
     MULTIPLE LAYERS AND PROPORTIONS :    1, 0.23       2, 0.77
  1889 2558-48-362     48    362.0       2109.    
     MULTIPLE LAYERS AND PROPORTIONS :    1, 0.23       2, 0.77
  1890 2558-55-343     55    343.0       2119.    
     MULTIPLE LAYERS AND PROPORTIONS :    1, 0.23       2, 0.77
  1891 2558-61-40      61    40.00       2106.    
     MULTIPLE LAYERS AND PROPORTIONS :    1, 0.23       2, 0.77
  1892 2651-42-356     42    356.0       2169.    
  1893 2632-66-33      66    33.00       2145.    
  1894 2632-71-63      71    63.00       2134.    
  1895 2644-48-345     48    345.0       2173.    
  1896 2644-71-63      71    63.00       2134.    
  1897 2645-42-356     42    356.0       2172.    
  1898 2645-48-345     48    345.0       2158.    
  1899 2645-66-33      66    33.00       2144.    
  1900 2645-71-63      71    63.00       2131.    
  1901 2624-71-63      71    63.00       2130.    
  1902 2609-42-365     42    365.0       2143.    
     MULTIPLE LAYERS AND PROPORTIONS :    1, 0.91       2, 0.09
  1903 2609-48-338     48    338.0       2138.    
     MULTIPLE LAYERS AND PROPORTIONS :    1, 0.91       2, 0.09
  1904 2609-56-24      56    24.00       2128.    
     MULTIPLE LAYERS AND PROPORTIONS :    1, 0.91       2, 0.09
  1905 2609-61-54      61    54.00       2121.    
     MULTIPLE LAYERS AND PROPORTIONS :    1, 0.91       2, 0.09
  1906 2609-66-26      66    26.00       2103.    
     MULTIPLE LAYERS AND PROPORTIONS :    1, 0.91       2, 0.09
  1907 2609-71-62      71    62.00       2095.    
     MULTIPLE LAYERS AND PROPORTIONS :    1, 0.91       2, 0.09
  1908 2631-56-24      56    24.00       2101.    
  1909 2631-61-54      61    54.00       2085.    
  1910 2631-66-33      66    33.00       2058.    
  1911 2652-17-24      17    24.00       2121.    
     MULTIPLE LAYERS AND PROPORTIONS :    1, 0.25       2, 0.75
  1912 2652-22-19      22    19.00       2113.    
     MULTIPLE LAYERS AND PROPORTIONS :    1, 0.25       2, 0.75
  1913 2652-27-33      27    33.00       2114.    
     MULTIPLE LAYERS AND PROPORTIONS :    1, 0.25       2, 0.75
  1914 2652-42-362     42    362.0       2099.    
     MULTIPLE LAYERS AND PROPORTIONS :    1, 0.25       2, 0.75
  1915 2634-66-19      66    19.00       2059.    
  1916 2633-56-23      56    23.00       2109.    
  1917 2647-1-51        1    51.00       2132.    
 Observation within a steady-state time step has been moved to the end of the time step.
  1918 2613-56-26      56    26.00       2121.    
     MULTIPLE LAYERS AND PROPORTIONS :    1, 0.28       2, 0.72
  1919 2622-11-34      11    34.00       2132.    
     MULTIPLE LAYERS AND PROPORTIONS :    1, 0.57       2, 0.43
  1920 2622-17-3       17    3.000       2120.    
     MULTIPLE LAYERS AND PROPORTIONS :    1, 0.57       2, 0.43
  1921 2622-22-25      22    25.00       2119.    
     MULTIPLE LAYERS AND PROPORTIONS :    1, 0.57       2, 0.43
  1922 2622-27-11      27    11.00       2120.    
     MULTIPLE LAYERS AND PROPORTIONS :    1, 0.57       2, 0.43
  1923 2622-32-46      32    46.00       2113.    
     MULTIPLE LAYERS AND PROPORTIONS :    1, 0.57       2, 0.43
  1924 2625-42-362     42    362.0       2107.    
     MULTIPLE LAYERS AND PROPORTIONS :    1, 0.30       2, 0.70
  1925 2605-42-362     42    362.0       2114.    
  1926 2605-48-362     48    362.0       2110.    
  1927 2605-55-343     55    343.0       2118.    
  1928 2605-61-38      61    38.00       2104.    
  1929 2605-66-49      66    49.00       2073.    
  1930 2605-71-40      71    40.00       2077.    
  1931 2605-71-350     71    350.0       2076.    
  1932 2570-8-37        8    37.00       2157.    
  1933 2570-12-46      12    46.00       2145.    
  1934 2570-17-24      17    24.00       2139.    
  1935 2570-22-25      22    25.00       2125.    
  1936 2560-22-25      22    25.00       2127.    
     MULTIPLE LAYERS AND PROPORTIONS :    1, 0.11       2, 0.61       3, 0.28
  1937 2560-27-34      27    34.00       2126.    
     MULTIPLE LAYERS AND PROPORTIONS :    1, 0.11       2, 0.61       3, 0.28
  1938 2560-32-36      32    36.00       2126.    
     MULTIPLE LAYERS AND PROPORTIONS :    1, 0.11       2, 0.61       3, 0.28
  1939 2560-42-363     42    363.0       2116.    
     MULTIPLE LAYERS AND PROPORTIONS :    1, 0.11       2, 0.61       3, 0.28
  1940 2545-56-20      56    20.00       2135.    
  1941 2544-1-50        1    50.00       2178.    
 Observation within a steady-state time step has been moved to the end of the time step.
  1942 2544-6-39        6    39.00       2167.    
  1943 2576-16-25      16    25.00       2150.    
  1944 2576-22-25      22    25.00       2142.    
  1945 2576-26-28      26    28.00       2140.    
  1946 2581-66-26      66    26.00       2077.    
  1947 2581-71-62      71    62.00       2076.    
  1948 2600-17-24      17    24.00       2133.    
     MULTIPLE LAYERS AND PROPORTIONS :    1, 0.54       2, 0.46
  1949 2600-22-25      22    25.00       2127.    
     MULTIPLE LAYERS AND PROPORTIONS :    1, 0.54       2, 0.46
  1950 2600-27-54      27    54.00       2129.    
     MULTIPLE LAYERS AND PROPORTIONS :    1, 0.54       2, 0.46
  1951 2600-32-36      32    36.00       2120.    
     MULTIPLE LAYERS AND PROPORTIONS :    1, 0.54       2, 0.46
  1952 2600-38-32      38    32.00       2112.    
     MULTIPLE LAYERS AND PROPORTIONS :    1, 0.54       2, 0.46
  1953 2600-39-32      39    32.00       2112.    
     MULTIPLE LAYERS AND PROPORTIONS :    1, 0.54       2, 0.46
  1954 2600-48-362     48    362.0       2111.    
     MULTIPLE LAYERS AND PROPORTIONS :    1, 0.54       2, 0.46
  1955 2600-55-343     55    343.0       2114.    
     MULTIPLE LAYERS AND PROPORTIONS :    1, 0.54       2, 0.46
  1956 2600-61-40      61    40.00       2102.    
     MULTIPLE LAYERS AND PROPORTIONS :    1, 0.54       2, 0.46
  1957 2600-66-49      66    49.00       2085.    
     MULTIPLE LAYERS AND PROPORTIONS :    1, 0.54       2, 0.46
  1958 2600-71-40      71    40.00       2075.    
     MULTIPLE LAYERS AND PROPORTIONS :    1, 0.54       2, 0.46
  1959 2600-71-350     71    350.0       2092.    
     MULTIPLE LAYERS AND PROPORTIONS :    1, 0.54       2, 0.46
  1960 2566-66-26      66    26.00       2067.    
  1961 2562-48-335     48    335.0       2109.    
     MULTIPLE LAYERS AND PROPORTIONS :    1, 0.18       2, 0.82
  1962 2562-56-25      56    25.00       2124.    
     MULTIPLE LAYERS AND PROPORTIONS :    1, 0.18       2, 0.82
  1963 2543-1-2         1    2.000       2177.    
 Observation within a steady-state time step has been moved to the end of the time step.
  1964 2546-7-316       7    316.0       2175.    
  1965 2546-12-46      12    46.00       2162.    
  1966 2546-17-33      17    33.00       2154.    
  1967 2546-22-25      22    25.00       2145.    
  1968 2546-27-11      27    11.00       2162.    
  1969 2546-32-46      32    46.00       2144.    
  1970 2546-38-46      38    46.00       2137.    
  1971 2546-39-32      39    32.00       2139.    
  1972 2546-56-25      56    25.00       2163.    
  1973 2541-17-3       17    3.000       2147.    
  1974 2541-27-11      27    11.00       2163.    
  1975 2548-42-362     42    362.0       2126.    
  1976 2548-48-362     48    362.0       2120.    
  1977 2548-55-347     55    347.0       2124.    
  1978 2548-60-362     60    362.0       2111.    
  1979 2547-66-48      66    48.00       2087.    
  1980 2547-71-12      71    12.00       2084.    
  1981 2547-71-350     71    350.0       2082.    
  1982 2551-42-352     42    352.0       2126.    
     MULTIPLE LAYERS AND PROPORTIONS :    1, 0.12       2, 0.88
  1983 2551-56-24      56    24.00       2127.    
     MULTIPLE LAYERS AND PROPORTIONS :    1, 0.12       2, 0.88
  1984 2551-66-26      66    26.00       2085.    
     MULTIPLE LAYERS AND PROPORTIONS :    1, 0.12       2, 0.88
  1985 2550-42-362     42    362.0       2130.    
  1986 2550-56-24      56    24.00       2122.    
  1987 2550-61-54      61    54.00       2107.    
  1988 2550-66-26      66    26.00       2085.    
  1989 2542-22-25      22    25.00       2156.    
     MULTIPLE LAYERS AND PROPORTIONS :    1, 0.57       2, 0.43
  1990 2542-27-54      27    54.00       2165.    
     MULTIPLE LAYERS AND PROPORTIONS :    1, 0.57       2, 0.43
  1991 2542-66-26      66    26.00       2089.    
     MULTIPLE LAYERS AND PROPORTIONS :    1, 0.57       2, 0.43
  1992 2552-56-24      56    24.00       2120.    
  1993 2552-61-54      61    54.00       2109.    
  1994 2552-66-33      66    33.00       2092.    
  1995 2552-71-62      71    62.00       2083.    
  1996 2598-1-274       1    274.0       2210.    
 Observation within a steady-state time step has been moved to the end of the time step.
  1997 2598-6-284       6    284.0       2205.    
  1998 2598-11-62      11    62.00       2197.    
  1999 2584-12-325     12    325.0       2205.    
  2000 2584-17-3       17    3.000       2190.    
  2001 2584-22-31      22    31.00       2181.    
  2002 2584-27-11      27    11.00       2173.    
  2003 2540-48-357     48    357.0       2153.    
  2004 2540-55-343     55    343.0       2142.    
  2005 2540-61-38      61    38.00       2135.    
  2006 2540-66-59      66    59.00       2125.    
  2007 2540-71-40      71    40.00       2122.    
  2008 2540-71-365     71    365.0       2122.    
  2009 2597-42-335     42    335.0       2153.    
  2010 2597-48-357     48    357.0       2151.    
  2011 2597-55-343     55    343.0       2141.    
  2012 2597-61-38      61    38.00       2136.    
  2013 2597-66-59      66    59.00       2129.    
  2014 2597-71-40      71    40.00       2121.    
  2015 2597-71-365     71    365.0       2119.    
  2016 2565-48-342     48    342.0       2155.    
  2017 2575-55-343     55    343.0       2203.    
  2018 2539-11-34      11    34.00       2244.    
  2019 2539-22-79      22    79.00       2212.    
  2020 2539-32-46      32    46.00       2200.    
  2021 2539-37-34      37    34.00       2187.    
  2022 2539-48-337     48    337.0       2174.    
  2023 2539-60-321     60    321.0       2158.    
  2024 2539-65-299     65    299.0       2144.    
  2025 2539-71-13      71    13.00       2144.    
  2026 2539-71-365     71    365.0       2143.    
  2027 2478-61-31      61    31.00       2169.    
  2028 2478-66-1       66    1.000       2150.    
  2029 2478-71-41      71    41.00       2148.    
  2030 2478-71-365     71    365.0       2152.    
  2031 2474-16-298     16    298.0       2273.    
  2032 2474-22-32      22    32.00       2270.    
  2033 2474-27-10      27    10.00       2263.    
  2034 2531-42-362     42    362.0       2157.    
  2035 2531-48-357     48    357.0       2153.    
  2036 2531-55-343     55    343.0       2141.    
  2037 2531-61-38      61    38.00       2134.    
  2038 2531-66-59      66    59.00       2123.    
  2039 2531-71-40      71    40.00       2121.    
  2040 2531-71-365     71    365.0       2121.    
  2041 2504-71-63      71    63.00       2155.    
  2042 2520-71-62      71    62.00       2132.    
  2043 2482-42-362     42    362.0       2162.    
     MULTIPLE LAYERS AND PROPORTIONS :    1, 0.18       2, 0.82
  2044 2482-48-362     48    362.0       2150.    
     MULTIPLE LAYERS AND PROPORTIONS :    1, 0.18       2, 0.82
  2045 2482-55-343     55    343.0       2143.    
     MULTIPLE LAYERS AND PROPORTIONS :    1, 0.18       2, 0.82
  2046 2482-61-40      61    40.00       2132.    
     MULTIPLE LAYERS AND PROPORTIONS :    1, 0.18       2, 0.82
  2047 2482-66-45      66    45.00       2121.    
     MULTIPLE LAYERS AND PROPORTIONS :    1, 0.18       2, 0.82
  2048 2482-71-26      71    26.00       2126.    
     MULTIPLE LAYERS AND PROPORTIONS :    1, 0.18       2, 0.82
  2049 2482-71-365     71    365.0       2127.    
     MULTIPLE LAYERS AND PROPORTIONS :    1, 0.18       2, 0.82
  2050 2470-55-343     55    343.0       2152.    
  2051 2470-66-45      66    45.00       2131.    
  2052 2470-71-41      71    41.00       2133.    
  2053 2470-71-365     71    365.0       2136.    
  2054 2473-55-343     55    343.0       2154.    
  2055 2476-48-362     48    362.0       2155.    
  2056 2476-55-343     55    343.0       2151.    
  2057 2476-61-32      61    32.00       2143.    
  2058 2476-66-45      66    45.00       2142.    
  2059 2476-71-41      71    41.00       2132.    
  2060 2476-71-365     71    365.0       2135.    
  2061 2523-37-1       37    1.000       2161.    
  2062 2512-71-62      71    62.00       2101.    
  2063 2513-17-24      17    24.00       2182.    
  2064 2513-22-25      22    25.00       2173.    
  2065 2513-26-362     26    362.0       2168.    
  2066 2487-42-355     42    355.0       2146.    
  2067 2467-12-46      12    46.00       2194.    
  2068 2467-17-3       17    3.000       2183.    
  2069 2467-22-25      22    25.00       2173.    
  2070 2467-27-54      27    54.00       2176.    
  2071 2467-32-46      32    46.00       2155.    
  2072 2467-38-32      38    32.00       2148.    
  2073 2466-2-128       2    128.0       2235.    
  2074 2496-42-335     42    335.0       2150.    
  2075 2496-48-362     48    362.0       2143.    
  2076 2496-55-343     55    343.0       2132.    
  2077 2496-61-32      61    32.00       2123.    
  2078 2496-66-45      66    45.00       2109.    
  2079 2496-71-40      71    40.00       2113.    
  2080 2496-71-365     71    365.0       2113.    
  2081 2486-42-362     42    362.0       2150.    
  2082 2486-48-362     48    362.0       2143.    
  2083 2486-55-343     55    343.0       2133.    
  2084 2486-60-344     60    344.0       2117.    
  2085 2486-66-45      66    45.00       2110.    
  2086 2486-71-26      71    26.00       2111.    
  2087 2486-71-365     71    365.0       2115.    
  2088 2499-33-95      33    95.00       2163.    
     MULTIPLE LAYERS AND PROPORTIONS :    1, 0.52       2, 0.48
  2089 2493-66-33      66    33.00       2109.    
  2090 2490-66-45      66    45.00       2105.    
  2091 2490-71-26      71    26.00       2099.    
  2092 2490-71-365     71    365.0       2101.    
  2093 2538-17-24      17    24.00       2177.    
     MULTIPLE LAYERS AND PROPORTIONS :    1, 0.25       2, 0.75
  2094 2538-22-25      22    25.00       2168.    
     MULTIPLE LAYERS AND PROPORTIONS :    1, 0.25       2, 0.75
  2095 2538-27-47      27    47.00       2170.    
     MULTIPLE LAYERS AND PROPORTIONS :    1, 0.25       2, 0.75
  2096 2538-32-46      32    46.00       2157.    
     MULTIPLE LAYERS AND PROPORTIONS :    1, 0.25       2, 0.75
  2097 2538-37-34      37    34.00       2146.    
     MULTIPLE LAYERS AND PROPORTIONS :    1, 0.25       2, 0.75
  2098 2538-42-363     42    363.0       2138.    
     MULTIPLE LAYERS AND PROPORTIONS :    1, 0.25       2, 0.75
  2099 2538-48-338     48    338.0       2134.    
     MULTIPLE LAYERS AND PROPORTIONS :    1, 0.25       2, 0.75
  2100 2538-56-24      56    24.00       2127.    
     MULTIPLE LAYERS AND PROPORTIONS :    1, 0.25       2, 0.75
  2101 2538-60-321     60    321.0       2116.    
     MULTIPLE LAYERS AND PROPORTIONS :    1, 0.25       2, 0.75
  2102 2534-56-24      56    24.00       2132.    
  2103 2534-66-19      66    19.00       2100.    
  2104 2532-56-24      56    24.00       2125.    
  2105 2500-71-62      71    62.00       2105.    
  2106 2517-48-362     48    362.0       2129.    
  2107 2517-55-343     55    343.0       2127.    
  2108 2517-61-32      61    32.00       2115.    
  2109 2517-66-40      66    40.00       2094.    
  2110 2517-71-350     71    350.0       2088.    
  2111 2514-17-3       17    3.000       2169.    
  2112 2475-22-25      22    25.00       2153.    
     MULTIPLE LAYERS AND PROPORTIONS :    1, 0.31       2, 0.69
  2113 2475-27-11      27    11.00       2143.    
     MULTIPLE LAYERS AND PROPORTIONS :    1, 0.31       2, 0.69
  2114 2475-43-32      43    32.00       2135.    
     MULTIPLE LAYERS AND PROPORTIONS :    1, 0.31       2, 0.69
  2115 2475-48-362     48    362.0       2133.    
     MULTIPLE LAYERS AND PROPORTIONS :    1, 0.31       2, 0.69
  2116 2475-55-347     55    347.0       2130.    
     MULTIPLE LAYERS AND PROPORTIONS :    1, 0.31       2, 0.69
  2117 2475-60-362     60    362.0       2121.    
     MULTIPLE LAYERS AND PROPORTIONS :    1, 0.31       2, 0.69
  2118 2475-66-1       66    1.000       2097.    
     MULTIPLE LAYERS AND PROPORTIONS :    1, 0.31       2, 0.69
  2119 2475-71-350     71    350.0       2090.    
     MULTIPLE LAYERS AND PROPORTIONS :    1, 0.31       2, 0.69
  2120 2480-22-25      22    25.00       2178.    
     MULTIPLE LAYERS AND PROPORTIONS :    1, 0.42       2, 0.58
  2121 2480-42-362     42    362.0       2140.    
     MULTIPLE LAYERS AND PROPORTIONS :    1, 0.42       2, 0.58
  2122 2480-48-362     48    362.0       2136.    
     MULTIPLE LAYERS AND PROPORTIONS :    1, 0.42       2, 0.58
  2123 2480-56-5       56    5.000       2140.    
     MULTIPLE LAYERS AND PROPORTIONS :    1, 0.42       2, 0.58
  2124 2480-61-5       61    5.000       2134.    
     MULTIPLE LAYERS AND PROPORTIONS :    1, 0.42       2, 0.58
  2125 2480-66-40      66    40.00       2106.    
     MULTIPLE LAYERS AND PROPORTIONS :    1, 0.42       2, 0.58
  2126 2480-71-26      71    26.00       2096.    
     MULTIPLE LAYERS AND PROPORTIONS :    1, 0.42       2, 0.58
  2127 2480-71-350     71    350.0       2098.    
     MULTIPLE LAYERS AND PROPORTIONS :    1, 0.42       2, 0.58
  2128 2471-17-3       17    3.000       2179.    
  2129 2471-27-11      27    11.00       2163.    
  2130 2536-48-362     48    362.0       2124.    
     MULTIPLE LAYERS AND PROPORTIONS :    1, 0.43       2, 0.57
  2131 2536-55-347     55    347.0       2125.    
     MULTIPLE LAYERS AND PROPORTIONS :    1, 0.43       2, 0.57
  2132 2536-60-362     60    362.0       2113.    
     MULTIPLE LAYERS AND PROPORTIONS :    1, 0.43       2, 0.57
  2133 2536-66-40      66    40.00       2091.    
     MULTIPLE LAYERS AND PROPORTIONS :    1, 0.43       2, 0.57
  2134 2536-71-350     71    350.0       2085.    
     MULTIPLE LAYERS AND PROPORTIONS :    1, 0.43       2, 0.57
  2135 2528-42-362     42    362.0       2129.    
     MULTIPLE LAYERS AND PROPORTIONS :    1, 0.42       2, 0.58
  2136 2528-48-362     48    362.0       2123.    
     MULTIPLE LAYERS AND PROPORTIONS :    1, 0.42       2, 0.58
  2137 2528-55-347     55    347.0       2126.    
     MULTIPLE LAYERS AND PROPORTIONS :    1, 0.42       2, 0.58
  2138 2528-60-362     60    362.0       2113.    
     MULTIPLE LAYERS AND PROPORTIONS :    1, 0.42       2, 0.58
  2139 2528-66-48      66    48.00       2088.    
     MULTIPLE LAYERS AND PROPORTIONS :    1, 0.42       2, 0.58
  2140 2528-71-350     71    350.0       2082.    
     MULTIPLE LAYERS AND PROPORTIONS :    1, 0.42       2, 0.58
  2141 2509-17-3       17    3.000       2148.    
  2142 2509-31-351     31    351.0       2138.    
  2143 2521-42-363     42    363.0       2132.    
     MULTIPLE LAYERS AND PROPORTIONS :    1, 0.28       2, 0.72
  2144 2521-48-335     48    335.0       2126.    
     MULTIPLE LAYERS AND PROPORTIONS :    1, 0.28       2, 0.72
  2145 2521-56-25      56    25.00       2133.    
     MULTIPLE LAYERS AND PROPORTIONS :    1, 0.28       2, 0.72
  2146 2521-61-56      61    56.00       2117.    
     MULTIPLE LAYERS AND PROPORTIONS :    1, 0.28       2, 0.72
  2147 2505-56-25      56    25.00       2133.    
  2148 2506-48-335     48    335.0       2129.    
     MULTIPLE LAYERS AND PROPORTIONS :    1, 0.11       2, 0.89
  2149 2506-56-25      56    25.00       2133.    
     MULTIPLE LAYERS AND PROPORTIONS :    1, 0.11       2, 0.89
  2150 2506-61-56      61    56.00       2082.    
     MULTIPLE LAYERS AND PROPORTIONS :    1, 0.11       2, 0.89
  2151 2506-66-18      66    18.00       2092.    
     MULTIPLE LAYERS AND PROPORTIONS :    1, 0.11       2, 0.89
  2152 2506-71-11      71    11.00       2089.    
     MULTIPLE LAYERS AND PROPORTIONS :    1, 0.11       2, 0.89
  2153 2506-71-365     71    365.0       2089.    
     MULTIPLE LAYERS AND PROPORTIONS :    1, 0.11       2, 0.89
  2154 2488-1-357       1    357.0       2201.    
 Observation within a steady-state time step has been moved to the end of the time step.
  2155 2488-7-316       7    316.0       2188.    
  2156 2488-10-283     10    283.0       2174.    
  2157 2488-17-33      17    33.00       2162.    
  2158 2488-22-25      22    25.00       2152.    
  2159 2488-27-47      27    47.00       2156.    
  2160 2488-37-27      37    27.00       2136.    
  2161 2472-1-357       1    357.0       2208.    
 Observation within a steady-state time step has been moved to the end of the time step.
  2162 2472-8-36        8    36.00       2189.    
  2163 2472-12-50      12    50.00       2174.    
  2164 2472-17-33      17    33.00       2162.    
  2165 2537-22-25      22    25.00       2136.    
  2166 2537-27-47      27    47.00       2145.    
  2167 2537-32-46      32    46.00       2140.    
  2168 2537-37-34      37    34.00       2138.    
  2169 2537-42-363     42    363.0       2125.    
  2170 2537-56-20      56    20.00       2135.    
  2171 2497-42-363     42    363.0       2131.    
  2172 2497-48-337     48    337.0       2126.    
  2173 2497-56-20      56    20.00       2135.    
  2174 2434-48-362     48    362.0       2131.    
  2175 2434-55-346     55    346.0       2132.    
  2176 2434-61-6       61    6.000       2124.    
  2177 2434-66-48      66    48.00       2095.    
  2178 2434-71-12      71    12.00       2089.    
  2179 2434-71-350     71    350.0       2088.    
  2180 2355-42-362     42    362.0       2138.    
     MULTIPLE LAYERS AND PROPORTIONS :    2, 0.78       3, 0.22
  2181 2355-48-362     48    362.0       2135.    
     MULTIPLE LAYERS AND PROPORTIONS :    2, 0.78       3, 0.22
  2182 2355-55-343     55    343.0       2134.    
     MULTIPLE LAYERS AND PROPORTIONS :    2, 0.78       3, 0.22
  2183 2355-61-40      61    40.00       2122.    
     MULTIPLE LAYERS AND PROPORTIONS :    2, 0.78       3, 0.22
  2184 2355-71-47      71    47.00       2094.    
  2185 2355-71-350     71    350.0       2092.    
  2186 2428-56-38      56    38.00       2135.    
  2187 2428-66-48      66    48.00       2102.    
  2188 2428-71-5       71    5.000       2091.    
  2189 2428-71-365     71    365.0       2091.    
  2190 2433-66-48      66    48.00       2099.    
  2191 2433-71-5       71    5.000       2091.    
  2192 2433-71-365     71    365.0       2087.    
  2193 2403-48-362     48    362.0       2122.    
     MULTIPLE LAYERS AND PROPORTIONS :    1, 0.25       2, 0.75
  2194 2403-55-343     55    343.0       2126.    
     MULTIPLE LAYERS AND PROPORTIONS :    1, 0.25       2, 0.75
  2195 2403-66-59      66    59.00       2098.    
     MULTIPLE LAYERS AND PROPORTIONS :    1, 0.25       2, 0.75
  2196 2403-71-47      71    47.00       2091.    
     MULTIPLE LAYERS AND PROPORTIONS :    1, 0.25       2, 0.75
  2197 2403-71-365     71    365.0       2090.    
     MULTIPLE LAYERS AND PROPORTIONS :    1, 0.25       2, 0.75
  2198 2410-66-59      66    59.00       2100.    
  2199 2410-71-47      71    47.00       2091.    
  2200 2410-71-365     71    365.0       2090.    
  2201 2462-8-38        8    38.00       2184.    
  2202 2464-12-50      12    50.00       2168.    
  2203 2464-17-23      17    23.00       2159.    
  2204 2464-22-23      22    23.00       2149.    
  2205 2459-42-362     42    362.0       2136.    
  2206 2459-48-362     48    362.0       2131.    
  2207 2409-66-48      66    48.00       2103.    
  2208 2409-71-12      71    12.00       2092.    
  2209 2357-12-50      12    50.00       2196.    
  2210 2357-17-35      17    35.00       2180.    
  2211 2357-22-23      22    23.00       2170.    
  2212 2357-27-34      27    34.00       2169.    
  2213 2357-37-34      37    34.00       2157.    
  2214 2357-66-48      66    48.00       2119.    
  2215 2357-71-12      71    12.00       2085.    
  2216 2357-71-365     71    365.0       2093.    
  2217 2336-61-21      61    21.00       2132.    
  2218 2363-56-38      56    38.00       2144.    
  2219 2363-66-48      66    48.00       2121.    
  2220 2363-71-5       71    5.000       2102.    
  2221 2363-71-365     71    365.0       2103.    
  2222 2460-22-25      22    25.00       2164.    
     MULTIPLE LAYERS AND PROPORTIONS :    1, 0.38       2, 0.62
  2223 2460-48-362     48    362.0       2136.    
     MULTIPLE LAYERS AND PROPORTIONS :    1, 0.38       2, 0.62
  2224 2460-55-343     55    343.0       2134.    
     MULTIPLE LAYERS AND PROPORTIONS :    1, 0.38       2, 0.62
  2225 2460-61-20      61    20.00       2124.    
     MULTIPLE LAYERS AND PROPORTIONS :    1, 0.38       2, 0.62
  2226 2460-66-49      66    49.00       2104.    
     MULTIPLE LAYERS AND PROPORTIONS :    1, 0.38       2, 0.62
  2227 2460-71-41      71    41.00       2096.    
     MULTIPLE LAYERS AND PROPORTIONS :    1, 0.38       2, 0.62
  2228 2460-71-350     71    350.0       2094.    
     MULTIPLE LAYERS AND PROPORTIONS :    1, 0.38       2, 0.62
  2229 2399-56-38      56    38.00       2138.    
  2230 2399-66-48      66    48.00       2114.    
  2231 2399-71-5       71    5.000       2100.    
  2232 2399-71-365     71    365.0       2099.    
  2233 2373-56-6       56    6.000       2140.    
     MULTIPLE LAYERS AND PROPORTIONS :    1, 0.25       2, 0.60       3, 0.15
  2234 2373-61-6       61    6.000       2129.    
     MULTIPLE LAYERS AND PROPORTIONS :    1, 0.25       2, 0.60       3, 0.15
  2235 2373-66-48      66    48.00       2121.    
     MULTIPLE LAYERS AND PROPORTIONS :    1, 0.25       2, 0.60       3, 0.15
  2236 2373-71-12      71    12.00       2104.    
     MULTIPLE LAYERS AND PROPORTIONS :    1, 0.25       2, 0.60       3, 0.15
  2237 2373-71-365     71    365.0       2104.    
     MULTIPLE LAYERS AND PROPORTIONS :    1, 0.25       2, 0.60       3, 0.15
  2238 2356-56-38      56    38.00       2142.    
  2239 2356-66-42      66    42.00       2133.    
  2240 2356-71-5       71    5.000       2113.    
  2241 2356-71-365     71    365.0       2115.    
  2242 2389-8-37        8    37.00       2225.    
  2243 2389-12-38      12    38.00       2209.    
  2244 2388-17-34      17    34.00       2187.    
  2245 2388-22-25      22    25.00       2175.    
  2246 2388-32-46      32    46.00       2167.    
  2247 2388-38-32      38    32.00       2160.    
  2248 2343-12-50      12    50.00       2205.    
     MULTIPLE LAYERS AND PROPORTIONS :    1, 0.60       2, 0.40
  2249 2343-17-35      17    35.00       2190.    
     MULTIPLE LAYERS AND PROPORTIONS :    1, 0.60       2, 0.40
  2250 2343-22-24      22    24.00       2178.    
     MULTIPLE LAYERS AND PROPORTIONS :    1, 0.60       2, 0.40
  2251 2343-61-21      61    21.00       2153.    
     MULTIPLE LAYERS AND PROPORTIONS :    1, 0.60       2, 0.40
  2252 2427-42-363     42    363.0       2149.    
     MULTIPLE LAYERS AND PROPORTIONS :    1, 0.33       2, 0.67
  2253 2427-48-337     48    337.0       2143.    
     MULTIPLE LAYERS AND PROPORTIONS :    1, 0.33       2, 0.67
  2254 2427-61-20      61    20.00       2124.    
     MULTIPLE LAYERS AND PROPORTIONS :    1, 0.33       2, 0.67
  2255 2427-66-31      66    31.00       2109.    
     MULTIPLE LAYERS AND PROPORTIONS :    1, 0.33       2, 0.67
  2256 2418-10-262     10    262.0       2219.    
  2257 2408-10-262     10    262.0       2234.    
  2258 2431-7-316       7    316.0       2228.    
  2259 2431-12-38      12    38.00       2209.    
  2260 2446-22-25      22    25.00       2182.    
     MULTIPLE LAYERS AND PROPORTIONS :    1, 0.60       2, 0.40
  2261 2447-7-32        7    32.00       2226.    
  2262 2432-7-316       7    316.0       2220.    
  2263 2432-12-33      12    33.00       2203.    
  2264 2432-22-1       22    1.000       2179.    
  2265 2432-42-363     42    363.0       2152.    
  2266 2405-16-293     16    293.0       2215.    
  2267 2383-12-50      12    50.00       2224.    
  2268 2383-17-24      17    24.00       2210.    
  2269 2383-22-24      22    24.00       2199.    
  2270 2383-27-11      27    11.00       2194.    
  2271 2383-32-48      32    48.00       2181.    
  2272 2387-61-20      61    20.00       2131.    
     MULTIPLE LAYERS AND PROPORTIONS :    1, 0.18       2, 0.82
  2273 2387-66-28      66    28.00       2117.    
     MULTIPLE LAYERS AND PROPORTIONS :    1, 0.18       2, 0.82
  2274 2387-71-54      71    54.00       2115.    
     MULTIPLE LAYERS AND PROPORTIONS :    1, 0.18       2, 0.82
  2275 2372-27-47      27    47.00       2181.    
  2276 2372-42-363     42    363.0       2156.    
  2277 2372-56-19      56    19.00       2142.    
  2278 2372-71-54      71    54.00       2109.    
  2279 2332-61-20      61    20.00       2135.    
     MULTIPLE LAYERS AND PROPORTIONS :    1, 0.18       2, 0.82
  2280 2332-66-28      66    28.00       2141.    
     MULTIPLE LAYERS AND PROPORTIONS :    1, 0.18       2, 0.82
  2281 2332-71-54      71    54.00       2112.    
     MULTIPLE LAYERS AND PROPORTIONS :    1, 0.18       2, 0.82
  2282 2437-22-24      22    24.00       2213.    
  2283 2437-27-15      27    15.00       2208.    
  2284 2437-32-48      32    48.00       2196.    
  2285 2438-12-306     12    306.0       2233.    
  2286 2438-16-298     16    298.0       2223.    
  2287 2430-42-363     42    363.0       2158.    
     MULTIPLE LAYERS AND PROPORTIONS :    1, 0.28       2, 0.72
  2288 2430-48-337     48    337.0       2145.    
     MULTIPLE LAYERS AND PROPORTIONS :    1, 0.28       2, 0.72
  2289 2430-56-19      56    19.00       2141.    
     MULTIPLE LAYERS AND PROPORTIONS :    1, 0.28       2, 0.72
  2290 2430-66-28      66    28.00       2118.    
     MULTIPLE LAYERS AND PROPORTIONS :    1, 0.28       2, 0.72
  2291 2430-71-54      71    54.00       2126.    
     MULTIPLE LAYERS AND PROPORTIONS :    1, 0.28       2, 0.72
  2292 2444-10-264     10    264.0       2239.    
  2293 2424-10-265     10    265.0       2235.    
  2294 2425-10-265     10    265.0       2237.    
  2295 2414-10-263     10    263.0       2232.    
  2296 2458-42-362     42    362.0       2153.    
     MULTIPLE LAYERS AND PROPORTIONS :    1, 0.19       2, 0.81
  2297 2458-48-362     48    362.0       2143.    
     MULTIPLE LAYERS AND PROPORTIONS :    1, 0.19       2, 0.81
  2298 2458-56-32      56    32.00       2135.    
     MULTIPLE LAYERS AND PROPORTIONS :    1, 0.19       2, 0.81
  2299 2458-61-20      61    20.00       2125.    
     MULTIPLE LAYERS AND PROPORTIONS :    1, 0.19       2, 0.81
  2300 2458-66-49      66    49.00       2112.    
     MULTIPLE LAYERS AND PROPORTIONS :    1, 0.19       2, 0.81
  2301 2458-71-41      71    41.00       2118.    
     MULTIPLE LAYERS AND PROPORTIONS :    1, 0.19       2, 0.81
  2302 2458-71-365     71    365.0       2118.    
     MULTIPLE LAYERS AND PROPORTIONS :    1, 0.19       2, 0.81
  2303 2439-42-363     42    363.0       2156.    
     MULTIPLE LAYERS AND PROPORTIONS :    1, 0.25       2, 0.75
  2304 2439-48-337     48    337.0       2148.    
     MULTIPLE LAYERS AND PROPORTIONS :    1, 0.25       2, 0.75
  2305 2439-56-19      56    19.00       2143.    
     MULTIPLE LAYERS AND PROPORTIONS :    1, 0.25       2, 0.75
  2306 2439-61-20      61    20.00       2130.    
     MULTIPLE LAYERS AND PROPORTIONS :    1, 0.25       2, 0.75
  2307 2439-66-31      66    31.00       2114.    
     MULTIPLE LAYERS AND PROPORTIONS :    1, 0.25       2, 0.75
  2308 2415-1-52        1    52.00       2259.    
 Observation within a steady-state time step has been moved to the end of the time step.
  2309 2407-27-47      27    47.00       2201.    
     MULTIPLE LAYERS AND PROPORTIONS :    1, 0.30       2, 0.70
  2310 2407-61-20      61    20.00       2133.    
     MULTIPLE LAYERS AND PROPORTIONS :    1, 0.30       2, 0.70
  2311 2407-66-28      66    28.00       2118.    
     MULTIPLE LAYERS AND PROPORTIONS :    1, 0.30       2, 0.70
  2312 2407-71-54      71    54.00       2127.    
     MULTIPLE LAYERS AND PROPORTIONS :    1, 0.30       2, 0.70
  2313 2402-10-263     10    263.0       2229.    
  2314 2394-56-26      56    26.00       2149.    
  2315 2394-61-61      61    61.00       2142.    
  2316 2394-66-25      66    25.00       2129.    
  2317 2386-60-341     60    341.0       2130.    
  2318 2386-66-49      66    49.00       2121.    
  2319 2386-71-40      71    40.00       2124.    
  2320 2386-71-365     71    365.0       2125.    
  2321 2453-27-47      27    47.00       2278.    
  2322 2413-2-121       2    121.0       2301.    
  2323 2412-12-304     12    304.0       2252.    
     MULTIPLE LAYERS AND PROPORTIONS :    1, 0.97       2, 0.03
  2324 2412-16-298     16    298.0       2240.    
     MULTIPLE LAYERS AND PROPORTIONS :    1, 0.97       2, 0.03
  2325 2412-16-364     16    364.0       2242.    
     MULTIPLE LAYERS AND PROPORTIONS :    1, 0.97       2, 0.03
  2326 2398-1-357       1    357.0       2279.    
 Observation within a steady-state time step has been moved to the end of the time step.
  2327 2398-7-2         7    2.000       2288.    
  2328 2395-42-363     42    363.0       2217.    
     MULTIPLE LAYERS AND PROPORTIONS :    1, 0.70       2, 0.30
  2329 2395-48-337     48    337.0       2208.    
     MULTIPLE LAYERS AND PROPORTIONS :    1, 0.70       2, 0.30
  2330 2385-42-363     42    363.0       2211.    
     MULTIPLE LAYERS AND PROPORTIONS :    1, 0.68       2, 0.32
  2331 2385-48-362     48    362.0       2200.    
     MULTIPLE LAYERS AND PROPORTIONS :    1, 0.68       2, 0.32
  2332 2385-55-346     55    346.0       2189.    
     MULTIPLE LAYERS AND PROPORTIONS :    1, 0.68       2, 0.32
  2333 2385-61-31      61    31.00       2180.    
     MULTIPLE LAYERS AND PROPORTIONS :    1, 0.68       2, 0.32
  2334 2385-66-1       66    1.000       2161.    
     MULTIPLE LAYERS AND PROPORTIONS :    1, 0.68       2, 0.32
  2335 2385-71-41      71    41.00       2161.    
     MULTIPLE LAYERS AND PROPORTIONS :    1, 0.68       2, 0.32
  2336 2385-71-365     71    365.0       2167.    
     MULTIPLE LAYERS AND PROPORTIONS :    1, 0.68       2, 0.32
  2337 2282-12-46      12    46.00       2278.    
  2338 2282-17-24      17    24.00       2263.    
  2339 2282-22-24      22    24.00       2258.    
  2340 2282-32-48      32    48.00       2238.    
  2341 2326-26-293     26    293.0       2237.    
     MULTIPLE LAYERS AND PROPORTIONS :    1, 0.30       2, 0.58       3, 0.12
  2342 2326-42-363     42    363.0       2208.    
     MULTIPLE LAYERS AND PROPORTIONS :    1, 0.30       2, 0.58       3, 0.12
  2343 2326-48-362     48    362.0       2194.    
     MULTIPLE LAYERS AND PROPORTIONS :    1, 0.30       2, 0.58       3, 0.12
  2344 2326-56-33      56    33.00       2168.    
     MULTIPLE LAYERS AND PROPORTIONS :    1, 0.30       2, 0.58       3, 0.12
  2345 2326-61-41      61    41.00       2167.    
     MULTIPLE LAYERS AND PROPORTIONS :    1, 0.30       2, 0.58       3, 0.12
  2346 2326-66-45      66    45.00       2152.    
     MULTIPLE LAYERS AND PROPORTIONS :    1, 0.30       2, 0.58       3, 0.12
  2347 2326-71-41      71    41.00       2156.    
     MULTIPLE LAYERS AND PROPORTIONS :    1, 0.30       2, 0.58       3, 0.12
  2348 2326-71-365     71    365.0       2160.    
     MULTIPLE LAYERS AND PROPORTIONS :    1, 0.30       2, 0.58       3, 0.12
  2349 2260-56-26      56    26.00       2172.    
  2350 2260-61-61      61    61.00       2161.    
  2351 2260-66-25      66    25.00       2147.    
  2352 2260-71-61      71    61.00       2152.    
  2353 2202-71-61      71    61.00       2133.    
  2354 2127-42-335     42    335.0       2192.    
     MULTIPLE LAYERS AND PROPORTIONS :    1, 0.59       2, 0.41
  2355 2283-7-311       7    311.0       2250.    
     MULTIPLE LAYERS AND PROPORTIONS :    1, 0.98       2, 0.02
  2356 2283-17-24      17    24.00       2219.    
     MULTIPLE LAYERS AND PROPORTIONS :    1, 0.98       2, 0.02
  2357 2283-22-24      22    24.00       2212.    
     MULTIPLE LAYERS AND PROPORTIONS :    1, 0.98       2, 0.02
  2358 2283-27-47      27    47.00       2202.    
     MULTIPLE LAYERS AND PROPORTIONS :    1, 0.98       2, 0.02
  2359 2283-32-48      32    48.00       2187.    
     MULTIPLE LAYERS AND PROPORTIONS :    1, 0.98       2, 0.02
  2360 2283-35-15      35    15.00       2180.    
     MULTIPLE LAYERS AND PROPORTIONS :    1, 0.98       2, 0.02
  2361 2291-37-32      37    32.00       2177.    
     MULTIPLE LAYERS AND PROPORTIONS :    1, 0.31       2, 0.69
  2362 2291-48-338     48    338.0       2156.    
     MULTIPLE LAYERS AND PROPORTIONS :    1, 0.31       2, 0.69
  2363 2291-60-321     60    321.0       2133.    
     MULTIPLE LAYERS AND PROPORTIONS :    1, 0.31       2, 0.69
  2364 2291-71-13      71    13.00       2129.    
     MULTIPLE LAYERS AND PROPORTIONS :    1, 0.31       2, 0.69
  2365 2291-71-365     71    365.0       2130.    
     MULTIPLE LAYERS AND PROPORTIONS :    1, 0.31       2, 0.69
  2366 2304-7-311       7    311.0       2243.    
  2367 2304-12-38      12    38.00       2229.    
  2368 2304-17-3       17    3.000       2211.    
  2369 2304-22-24      22    24.00       2202.    
  2370 2304-27-11      27    11.00       2197.    
  2371 2237-7-79        7    79.00       2255.    
  2372 2237-12-38      12    38.00       2241.    
  2373 2237-17-24      17    24.00       2224.    
  2374 2237-22-24      22    24.00       2217.    
  2375 2237-27-16      27    16.00       2200.    
  2376 2218-56-34      56    34.00       2138.    
  2377 2218-66-59      66    59.00       2128.    
  2378 2218-71-54      71    54.00       2128.    
  2379 2218-71-365     71    365.0       2128.    
  2380 2212-26-349     26    349.0       2217.    
     MULTIPLE LAYERS AND PROPORTIONS :    1, 0.13       2, 0.87
  2381 2212-42-362     42    362.0       2184.    
     MULTIPLE LAYERS AND PROPORTIONS :    1, 0.13       2, 0.87
  2382 2212-61-20      61    20.00       2151.    
     MULTIPLE LAYERS AND PROPORTIONS :    1, 0.13       2, 0.87
  2383 2212-66-59      66    59.00       2145.    
     MULTIPLE LAYERS AND PROPORTIONS :    1, 0.13       2, 0.87
  2384 2212-71-54      71    54.00       2148.    
     MULTIPLE LAYERS AND PROPORTIONS :    1, 0.13       2, 0.87
  2385 2212-71-365     71    365.0       2148.    
     MULTIPLE LAYERS AND PROPORTIONS :    1, 0.13       2, 0.87
  2386 2213-56-34      56    34.00       2137.    
  2387 2213-66-59      66    59.00       2132.    
  2388 2213-71-54      71    54.00       2133.    
  2389 2213-71-365     71    365.0       2133.    
  2390 2177-42-363     42    363.0       2166.    
     MULTIPLE LAYERS AND PROPORTIONS :    1, 0.62       2, 0.38
  2391 2177-48-337     48    337.0       2168.    
  2392 2177-56-19      56    19.00       2145.    
  2393 2177-66-31      66    31.00       2130.    
  2394 2177-71-54      71    54.00       2106.    
  2395 2175-6-283       6    283.0       2262.    
  2396 2175-12-51      12    51.00       2240.    
  2397 2175-17-24      17    24.00       2228.    
  2398 2175-22-24      22    24.00       2220.    
  2399 2175-27-47      27    47.00       2202.    
  2400 2176-56-34      56    34.00       2142.    
  2401 2176-66-59      66    59.00       2132.    
  2402 2176-71-54      71    54.00       2133.    
  2403 2176-71-365     71    365.0       2133.    
  2404 2154-56-19      56    19.00       2146.    
     MULTIPLE LAYERS AND PROPORTIONS :    2, 0.39       3, 0.61
  2405 2154-61-20      61    20.00       2142.    
     MULTIPLE LAYERS AND PROPORTIONS :    2, 0.39       3, 0.61
  2406 2154-66-28      66    28.00       2135.    
     MULTIPLE LAYERS AND PROPORTIONS :    2, 0.39       3, 0.61
  2407 2154-71-54      71    54.00       2139.    
     MULTIPLE LAYERS AND PROPORTIONS :    2, 0.39       3, 0.61
  2408 2232-56-26      56    26.00       2147.    
  2409 2232-61-20      61    20.00       2140.    
  2410 2232-66-25      66    25.00       2134.    
  2411 2232-71-53      71    53.00       2137.    
  2412 2211-56-26      56    26.00       2149.    
  2413 2211-61-20      61    20.00       2141.    
  2414 2211-66-25      66    25.00       2137.    
  2415 2211-71-53      71    53.00       2141.    
  2416 2233-56-26      56    26.00       2143.    
  2417 2233-61-20      61    20.00       2139.    
  2418 2170-56-26      56    26.00       2146.    
  2419 2170-66-25      66    25.00       2135.    
  2420 2131-12-290     12    290.0       2246.    
  2421 2131-56-26      56    26.00       2155.    
  2422 2131-61-61      61    61.00       2150.    
  2423 2131-66-25      66    25.00       2143.    
  2424 2131-71-53      71    53.00       2148.    
  2425 2137-42-363     42    363.0       2174.    
     MULTIPLE LAYERS AND PROPORTIONS :    2, 0.99       3, 0.01
  2426 2137-48-338     48    338.0       2172.    
     MULTIPLE LAYERS AND PROPORTIONS :    2, 0.99       3, 0.01
  2427 2137-56-24      56    24.00       2171.    
     MULTIPLE LAYERS AND PROPORTIONS :    2, 0.99       3, 0.01
  2428 2137-66-19      66    19.00       2140.    
     MULTIPLE LAYERS AND PROPORTIONS :    2, 0.99       3, 0.01
  2429 2137-71-60      71    60.00       2138.    
     MULTIPLE LAYERS AND PROPORTIONS :    2, 0.99       3, 0.01
  2430 2289-11-38      11    38.00       2218.    
  2431 2289-17-33      17    33.00       2195.    
  2432 2289-22-24      22    24.00       2184.    
  2433 2289-32-32      32    32.00       2180.    
  2434 2241-10-33      10    33.00       2227.    
  2435 2241-17-33      17    33.00       2199.    
  2436 2241-22-24      22    24.00       2189.    
  2437 2241-42-363     42    363.0       2164.    
  2438 2241-48-334     48    334.0       2158.    
  2439 2241-56-26      56    26.00       2149.    
  2440 2241-61-21      61    21.00       2141.    
  2441 2236-1-357       1    357.0       2246.    
 Observation within a steady-state time step has been moved to the end of the time step.
  2442 2236-6-341       6    341.0       2242.    
  2443 2236-12-59      12    59.00       2219.    
  2444 2236-16-313     16    313.0       2206.    
  2445 2236-22-32      22    32.00       2193.    
  2446 2327-71-365     71    365.0       2124.    
  2447 2306-71-54      71    54.00       2114.    
  2448 2306-71-365     71    365.0       2108.    
  2449 2264-56-38      56    38.00       2145.    
  2450 2264-66-48      66    48.00       2132.    
  2451 2264-71-5       71    5.000       2111.    
  2452 2264-71-365     71    365.0       2111.    
  2453 2307-71-54      71    54.00       2110.    
  2454 2307-71-365     71    365.0       2102.    
  2455 2292-56-38      56    38.00       2153.    
  2456 2292-66-42      66    42.00       2134.    
  2457 2293-56-38      56    38.00       2152.    
  2458 2293-66-48      66    48.00       2131.    
  2459 2293-71-12      71    12.00       2097.    
  2460 2293-71-365     71    365.0       2111.    
  2461 2272-55-346     55    346.0       2143.    
  2462 2272-71-54      71    54.00       2109.    
  2463 2272-71-365     71    365.0       2100.    
  2464 2268-66-3       66    3.000       2122.    
  2465 2268-71-365     71    365.0       2107.    
  2466 2242-56-38      56    38.00       2144.    
  2467 2242-66-48      66    48.00       2122.    
  2468 2242-71-365     71    365.0       2100.    
  2469 2257-56-38      56    38.00       2149.    
  2470 2257-66-48      66    48.00       2135.    
  2471 2258-56-38      56    38.00       2152.    
  2472 2258-66-48      66    48.00       2138.    
  2473 2187-42-362     42    362.0       2156.    
  2474 2187-48-336     48    336.0       2152.    
  2475 2187-56-5       56    5.000       2143.    
  2476 2187-61-6       61    6.000       2137.    
  2477 2187-66-48      66    48.00       2121.    
  2478 2187-71-54      71    54.00       2107.    
  2479 2187-71-349     71    349.0       2100.    
  2480 2234-56-38      56    38.00       2152.    
  2481 2234-66-48      66    48.00       2126.    
  2482 2226-66-48      66    48.00       2127.    
  2483 2155-56-38      56    38.00       2153.    
  2484 2155-66-48      66    48.00       2127.    
  2485 2333-56-38      56    38.00       2142.    
  2486 2333-66-48      66    48.00       2117.    
  2487 2308-56-38      56    38.00       2143.    
  2488 2308-66-48      66    48.00       2123.    
  2489 2308-71-21      71    21.00       2103.    
  2490 2308-71-365     71    365.0       2104.    
  2491 2329-56-38      56    38.00       2145.    
  2492 2329-66-48      66    48.00       2123.    
  2493 2329-71-12      71    12.00       2098.    
  2494 2329-71-365     71    365.0       2104.    
  2495 2319-66-48      66    48.00       2133.    
  2496 2320-56-38      56    38.00       2146.    
  2497 2320-66-48      66    48.00       2131.    
  2498 2320-71-12      71    12.00       2108.    
  2499 2320-71-365     71    365.0       2112.    
  2500 2299-55-343     55    343.0       2141.    
  2501 2299-71-54      71    54.00       2096.    
  2502 2299-71-365     71    365.0       2096.    
  2503 2274-56-38      56    38.00       2145.    
  2504 2274-71-54      71    54.00       2106.    
  2505 2274-71-365     71    365.0       2098.    
  2506 2294-56-38      56    38.00       2148.    
  2507 2294-66-48      66    48.00       2126.    
  2508 2294-71-12      71    12.00       2100.    
  2509 2294-71-365     71    365.0       2105.    
  2510 2273-56-38      56    38.00       2146.    
  2511 2273-66-48      66    48.00       2124.    
  2512 2273-71-21      71    21.00       2104.    
  2513 2273-71-365     71    365.0       2103.    
  2514 2284-66-42      66    42.00       2108.    
  2515 2167-1-365       1    365.0       2231.    
 Observation within a steady-state time step has been moved to the end of the time step.
  2516 2167-7-310       7    310.0       2218.    
  2517 2167-11-38      11    38.00       2206.    
  2518 2183-12-50      12    50.00       2200.    
  2519 2183-17-34      17    34.00       2181.    
  2520 2183-22-23      22    23.00       2171.    
  2521 2183-32-47      32    47.00       2167.    
  2522 2183-38-32      38    32.00       2162.    
  2523 2168-42-364     42    364.0       2155.    
  2524 2243-42-364     42    364.0       2133.    
     MULTIPLE LAYERS AND PROPORTIONS :    2, 0.93       3, 0.07
  2525 2243-56-25      56    25.00       2126.    
     MULTIPLE LAYERS AND PROPORTIONS :    2, 0.93       3, 0.07
  2526 2243-66-19      66    19.00       2074.    
     MULTIPLE LAYERS AND PROPORTIONS :    2, 0.93       3, 0.07
  2527 2108-66-48      66    48.00       2141.    
  2528 2109-12-50      12    50.00       2233.    
  2529 2109-17-34      17    34.00       2214.    
  2530 2109-22-23      22    23.00       2204.    
  2531 2109-42-362     42    362.0       2172.    
  2532 2109-48-363     48    363.0       2170.    
  2533 2109-55-346     55    346.0       2156.    
  2534 2109-60-323     60    323.0       2151.    
  2535 2109-66-48      66    48.00       2144.    
  2536 2109-71-12      71    12.00       2126.    
  2537 2109-71-349     71    349.0       2126.    
  2538 1991-7-25        7    25.00       2262.    
     MULTIPLE LAYERS AND PROPORTIONS :    1, 0.40       2, 0.60
  2539 1991-12-50      12    50.00       2243.    
     MULTIPLE LAYERS AND PROPORTIONS :    1, 0.40       2, 0.60
  2540 1991-17-34      17    34.00       2224.    
     MULTIPLE LAYERS AND PROPORTIONS :    1, 0.40       2, 0.60
  2541 1991-22-23      22    23.00       2214.    
     MULTIPLE LAYERS AND PROPORTIONS :    1, 0.40       2, 0.60
  2542 1991-27-11      27    11.00       2207.    
     MULTIPLE LAYERS AND PROPORTIONS :    1, 0.40       2, 0.60
  2543 1991-38-32      38    32.00       2199.    
     MULTIPLE LAYERS AND PROPORTIONS :    1, 0.40       2, 0.60
  2544 1991-42-365     42    365.0       2178.    
     MULTIPLE LAYERS AND PROPORTIONS :    1, 0.40       2, 0.60
  2545 1991-48-337     48    337.0       2181.    
  2546 1991-56-25      56    25.00       2168.    
  2547 1991-60-323     60    323.0       2162.    
  2548 2038-12-51      12    51.00       2244.    
  2549 2038-17-24      17    24.00       2232.    
  2550 2038-22-24      22    24.00       2223.    
  2551 2038-56-19      56    19.00       2217.    
  2552 2122-61-21      61    21.00       2149.    
     MULTIPLE LAYERS AND PROPORTIONS :    2, 0.98       3, 0.02
  2553 2075-56-38      56    38.00       2165.    
  2554 2039-61-21      61    21.00       2161.    
     MULTIPLE LAYERS AND PROPORTIONS :    2, 0.92       3, 0.08
  2555 2021-61-20      61    20.00       2161.    
     MULTIPLE LAYERS AND PROPORTIONS :    1, 0.74       2, 0.26
  2556 2020-61-21      61    21.00       2164.    
     MULTIPLE LAYERS AND PROPORTIONS :    1, 0.42       2, 0.58
  2557 1987-66-48      66    48.00       2158.    
  2558 1958-42-362     42    362.0       2187.    
     MULTIPLE LAYERS AND PROPORTIONS :    1, 0.30       2, 0.70
  2559 1958-48-362     48    362.0       2189.    
     MULTIPLE LAYERS AND PROPORTIONS :    1, 0.30       2, 0.70
  2560 1958-55-346     55    346.0       2175.    
     MULTIPLE LAYERS AND PROPORTIONS :    1, 0.30       2, 0.70
  2561 1958-61-20      61    20.00       2168.    
     MULTIPLE LAYERS AND PROPORTIONS :    1, 0.30       2, 0.70
  2562 1958-66-1       66    1.000       2158.    
     MULTIPLE LAYERS AND PROPORTIONS :    1, 0.30       2, 0.70
  2563 1958-71-47      71    47.00       2154.    
     MULTIPLE LAYERS AND PROPORTIONS :    1, 0.30       2, 0.70
  2564 1958-71-349     71    349.0       2153.    
     MULTIPLE LAYERS AND PROPORTIONS :    1, 0.30       2, 0.70
  2565 1952-12-301     12    301.0       2256.    
     MULTIPLE LAYERS AND PROPORTIONS :    1, 0.31       2, 0.69
  2566 1952-17-4       17    4.000       2237.    
     MULTIPLE LAYERS AND PROPORTIONS :    1, 0.31       2, 0.69
  2567 1952-22-32      22    32.00       2234.    
     MULTIPLE LAYERS AND PROPORTIONS :    1, 0.31       2, 0.69
  2568 1952-27-11      27    11.00       2225.    
     MULTIPLE LAYERS AND PROPORTIONS :    1, 0.31       2, 0.69
  2569 2107-56-26      56    26.00       2157.    
     MULTIPLE LAYERS AND PROPORTIONS :    1, 0.15       2, 0.65       3, 0.20
  2570 2107-61-20      61    20.00       2145.    
     MULTIPLE LAYERS AND PROPORTIONS :    1, 0.15       2, 0.65       3, 0.20
  2571 2107-71-53      71    53.00       2148.    
     MULTIPLE LAYERS AND PROPORTIONS :    1, 0.15       2, 0.65       3, 0.20
  2572 2079-7-152       7    152.0       2264.    
  2573 2079-61-20      61    20.00       2145.    
  2574 2057-42-362     42    362.0       2188.    
  2575 2057-48-362     48    362.0       2181.    
  2576 2057-55-346     55    346.0       2150.    
  2577 2057-61-20      61    20.00       2156.    
  2578 2057-65-354     65    354.0       2147.    
  2579 2057-71-56      71    56.00       2152.    
  2580 2057-71-365     71    365.0       2152.    
  2581 2161-6-283       6    283.0       2266.    
  2582 2161-10-283     10    283.0       2246.    
  2583 2161-17-24      17    24.00       2232.    
  2584 2161-22-24      22    24.00       2224.    
  2585 2161-27-47      27    47.00       2212.    
  2586 2161-32-48      32    48.00       2199.    
  2587 2161-38-32      38    32.00       2192.    
  2588 2094-61-20      61    20.00       2148.    
     MULTIPLE LAYERS AND PROPORTIONS :    1, 0.23       2, 0.35       3, 0.42
  2589 2094-66-28      66    28.00       2138.    
     MULTIPLE LAYERS AND PROPORTIONS :    1, 0.23       2, 0.35       3, 0.42
  2590 2094-71-54      71    54.00       2143.    
     MULTIPLE LAYERS AND PROPORTIONS :    1, 0.23       2, 0.35       3, 0.42
  2591 2059-7-311       7    311.0       2263.    
     MULTIPLE LAYERS AND PROPORTIONS :    1, 0.99       2, 0.01
  2592 2059-12-51      12    51.00       2255.    
     MULTIPLE LAYERS AND PROPORTIONS :    1, 0.99       2, 0.01
  2593 2059-17-4       17    4.000       2229.    
     MULTIPLE LAYERS AND PROPORTIONS :    1, 0.99       2, 0.01
  2594 2059-22-24      22    24.00       2220.    
     MULTIPLE LAYERS AND PROPORTIONS :    1, 0.99       2, 0.01
  2595 2059-27-47      27    47.00       2219.    
     MULTIPLE LAYERS AND PROPORTIONS :    1, 0.99       2, 0.01
  2596 2059-61-21      61    21.00       2174.    
     MULTIPLE LAYERS AND PROPORTIONS :    1, 0.99       2, 0.01
  2597 1989-42-365     42    365.0       2190.    
  2598 1989-56-17      56    17.00       2179.    
  2599 1989-61-20      61    20.00       2170.    
  2600 1968-42-365     42    365.0       2192.    
     MULTIPLE LAYERS AND PROPORTIONS :    2, 0.36       3, 0.64
  2601 1968-56-17      56    17.00       2180.    
     MULTIPLE LAYERS AND PROPORTIONS :    2, 0.36       3, 0.64
  2602 1968-61-20      61    20.00       2173.    
     MULTIPLE LAYERS AND PROPORTIONS :    2, 0.36       3, 0.64
  2603 1937-56-17      56    17.00       2189.    
  2604 1937-61-20      61    20.00       2176.    
  2605 1937-66-27      66    27.00       2171.    
  2606 2007-61-21      61    21.00       2165.    
  2607 2007-66-25      66    25.00       2159.    
  2608 1981-61-21      61    21.00       2168.    
     MULTIPLE LAYERS AND PROPORTIONS :    1, 0.21       2, 0.79
  2609 2037-66-32      66    32.00       2145.    
  2610 2106-26-349     26    349.0       2227.    
     MULTIPLE LAYERS AND PROPORTIONS :    2, 0.43       3, 0.57
  2611 2106-32-32      32    32.00       2213.    
     MULTIPLE LAYERS AND PROPORTIONS :    2, 0.43       3, 0.57
  2612 2106-42-362     42    362.0       2192.    
     MULTIPLE LAYERS AND PROPORTIONS :    2, 0.43       3, 0.57
  2613 2106-48-362     48    362.0       2179.    
     MULTIPLE LAYERS AND PROPORTIONS :    2, 0.43       3, 0.57
  2614 2106-56-34      56    34.00       2160.    
     MULTIPLE LAYERS AND PROPORTIONS :    2, 0.43       3, 0.57
  2615 2106-61-41      61    41.00       2151.    
     MULTIPLE LAYERS AND PROPORTIONS :    2, 0.43       3, 0.57
  2616 2106-66-54      66    54.00       2145.    
     MULTIPLE LAYERS AND PROPORTIONS :    2, 0.43       3, 0.57
  2617 2106-71-41      71    41.00       2144.    
     MULTIPLE LAYERS AND PROPORTIONS :    2, 0.43       3, 0.57
  2618 2106-71-365     71    365.0       2148.    
     MULTIPLE LAYERS AND PROPORTIONS :    2, 0.43       3, 0.57
  2619 1951-12-51      12    51.00       2290.    
     MULTIPLE LAYERS AND PROPORTIONS :    1, 0.81       2, 0.19
  2620 1951-17-39      17    39.00       2273.    
     MULTIPLE LAYERS AND PROPORTIONS :    1, 0.81       2, 0.19
  2621 1951-22-28      22    28.00       2266.    
     MULTIPLE LAYERS AND PROPORTIONS :    1, 0.81       2, 0.19
  2622 1951-38-354     38    354.0       2221.    
     MULTIPLE LAYERS AND PROPORTIONS :    1, 0.81       2, 0.19
  2623 1951-42-363     42    363.0       2215.    
     MULTIPLE LAYERS AND PROPORTIONS :    1, 0.81       2, 0.19
  2624 1951-48-362     48    362.0       2201.    
     MULTIPLE LAYERS AND PROPORTIONS :    1, 0.81       2, 0.19
  2625 1951-55-346     55    346.0       2181.    
     MULTIPLE LAYERS AND PROPORTIONS :    1, 0.81       2, 0.19
  2626 1951-61-41      61    41.00       2171.    
     MULTIPLE LAYERS AND PROPORTIONS :    1, 0.81       2, 0.19
  2627 1951-66-49      66    49.00       2160.    
     MULTIPLE LAYERS AND PROPORTIONS :    1, 0.81       2, 0.19
  2628 1951-71-56      71    56.00       2163.    
     MULTIPLE LAYERS AND PROPORTIONS :    1, 0.81       2, 0.19
  2629 1951-71-365     71    365.0       2165.    
     MULTIPLE LAYERS AND PROPORTIONS :    1, 0.81       2, 0.19
  2630 2494-1-365       1    365.0       2306.    
 Observation within a steady-state time step has been moved to the end of the time step.
  2631 2489-22-66      22    66.00       2270.    
     MULTIPLE LAYERS AND PROPORTIONS :    1, 0.61       2, 0.39
  2632 2489-27-87      27    87.00       2267.    
     MULTIPLE LAYERS AND PROPORTIONS :    1, 0.61       2, 0.39
  2633 2489-32-1       32    1.000       2263.    
     MULTIPLE LAYERS AND PROPORTIONS :    1, 0.61       2, 0.39
  2634 2489-33-60      33    60.00       2258.    
     MULTIPLE LAYERS AND PROPORTIONS :    1, 0.61       2, 0.39
  2635 2489-42-363     42    363.0       2252.    
  2636 2489-55-349     55    349.0       2237.    
  2637 2429-61-61      61    61.00       2229.    
  2638 2429-66-25      66    25.00       2207.    
  2639 2429-71-53      71    53.00       2208.    
  2640 2457-22-65      22    65.00       2248.    
     MULTIPLE LAYERS AND PROPORTIONS :    1, 0.51       2, 0.49
  2641 2457-26-341     26    341.0       2237.    
     MULTIPLE LAYERS AND PROPORTIONS :    1, 0.51       2, 0.49
  2642 2457-31-335     31    335.0       2239.    
     MULTIPLE LAYERS AND PROPORTIONS :    1, 0.51       2, 0.49
  2643 2457-33-60      33    60.00       2232.    
     MULTIPLE LAYERS AND PROPORTIONS :    1, 0.51       2, 0.49
  2644 2457-42-363     42    363.0       2227.    
     MULTIPLE LAYERS AND PROPORTIONS :    1, 0.51       2, 0.49
  2645 2457-48-337     48    337.0       2219.    
     MULTIPLE LAYERS AND PROPORTIONS :    1, 0.51       2, 0.49
  2646 2457-56-18      56    18.00       2213.    
     MULTIPLE LAYERS AND PROPORTIONS :    1, 0.51       2, 0.49
  2647 2457-61-47      61    47.00       2207.    
     MULTIPLE LAYERS AND PROPORTIONS :    1, 0.51       2, 0.49
  2648 2457-66-32      66    32.00       2182.    
     MULTIPLE LAYERS AND PROPORTIONS :    1, 0.51       2, 0.49
  2649 2457-71-14      71    14.00       2184.    
     MULTIPLE LAYERS AND PROPORTIONS :    1, 0.51       2, 0.49
  2650 2457-71-42      71    42.00       2182.    
     MULTIPLE LAYERS AND PROPORTIONS :    1, 0.51       2, 0.49
  2651 2457-71-365     71    365.0       2191.    
     MULTIPLE LAYERS AND PROPORTIONS :    1, 0.51       2, 0.49
  2652 2426-61-61      61    61.00       2226.    
  2653 2426-66-25      66    25.00       2191.    
  2654 2378-22-66      22    66.00       2269.    
  2655 2378-26-341     26    341.0       2254.    
  2656 2378-31-335     31    335.0       2251.    
  2657 2377-7-1         7    1.000       2301.    
  2658 2377-12-92      12    92.00       2285.    
  2659 2382-1-365       1    365.0       2301.    
 Observation within a steady-state time step has been moved to the end of the time step.
  2660 2369-16-364     16    364.0       2258.    
  2661 2397-10-255     10    255.0       2291.    
  2662 2381-66-32      66    32.00       2184.    
  2663 2368-56-25      56    25.00       2246.    
  2664 2368-61-48      61    48.00       2216.    
  2665 2364-56-25      56    25.00       2246.    
     MULTIPLE LAYERS AND PROPORTIONS :    1, 0.24       2, 0.76
  2666 2364-61-48      61    48.00       2218.    
     MULTIPLE LAYERS AND PROPORTIONS :    1, 0.24       2, 0.76
  2667 2364-66-24      66    24.00       2182.    
     MULTIPLE LAYERS AND PROPORTIONS :    1, 0.24       2, 0.76
  2668 2364-71-14      71    14.00       2189.    
     MULTIPLE LAYERS AND PROPORTIONS :    1, 0.24       2, 0.76
  2669 2364-71-365     71    365.0       2205.    
     MULTIPLE LAYERS AND PROPORTIONS :    1, 0.24       2, 0.76
  2670 2361-56-25      56    25.00       2233.    
  2671 2361-61-48      61    48.00       2213.    
  2672 2361-66-24      66    24.00       2179.    
  2673 2361-71-14      71    14.00       2186.    
  2674 2361-71-365     71    365.0       2200.    
  2675 2349-42-364     42    364.0       2247.    
     MULTIPLE LAYERS AND PROPORTIONS :    1, 0.35       2, 0.65
  2676 2349-48-341     48    341.0       2231.    
     MULTIPLE LAYERS AND PROPORTIONS :    1, 0.35       2, 0.65
  2677 2349-56-18      56    18.00       2229.    
     MULTIPLE LAYERS AND PROPORTIONS :    1, 0.35       2, 0.65
  2678 2349-61-48      61    48.00       2207.    
     MULTIPLE LAYERS AND PROPORTIONS :    1, 0.35       2, 0.65
  2679 2349-66-24      66    24.00       2174.    
     MULTIPLE LAYERS AND PROPORTIONS :    1, 0.35       2, 0.65
  2680 2349-71-14      71    14.00       2184.    
     MULTIPLE LAYERS AND PROPORTIONS :    1, 0.35       2, 0.65
  2681 2349-71-365     71    365.0       2198.    
     MULTIPLE LAYERS AND PROPORTIONS :    1, 0.35       2, 0.65
  2682 2422-32-60      32    60.00       2288.    
  2683 2422-33-60      33    60.00       2281.    
  2684 2422-42-363     42    363.0       2283.    
  2685 2422-48-357     48    357.0       2271.    
  2686 2422-55-349     55    349.0       2262.    
  2687 2422-61-3       61    3.000       2255.    
  2688 2406-22-65      22    65.00       2281.    
  2689 2396-16-298     16    298.0       2300.    
  2690 2396-22-32      22    32.00       2300.    
  2691 2396-27-10      27    10.00       2326.    
  2692 2401-22-65      22    65.00       2282.    
  2693 2376-26-341     26    341.0       2266.    
     MULTIPLE LAYERS AND PROPORTIONS :    1, 0.53       2, 0.47
  2694 2365-22-65      22    65.00       2290.    
     MULTIPLE LAYERS AND PROPORTIONS :    1, 0.84       2, 0.16
  2695 2365-27-4       27    4.000       2327.    
     MULTIPLE LAYERS AND PROPORTIONS :    1, 0.84       2, 0.16
  2696 2335-56-18      56    18.00       2237.    
     MULTIPLE LAYERS AND PROPORTIONS :    1, 0.48       2, 0.52
  2697 2335-60-322     60    322.0       2219.    
     MULTIPLE LAYERS AND PROPORTIONS :    1, 0.48       2, 0.52
  2698 2335-65-326     65    326.0       2181.    
     MULTIPLE LAYERS AND PROPORTIONS :    1, 0.48       2, 0.52
  2699 2335-71-365     71    365.0       2205.    
     MULTIPLE LAYERS AND PROPORTIONS :    1, 0.48       2, 0.52
  2700 2348-56-18      56    18.00       2235.    
     MULTIPLE LAYERS AND PROPORTIONS :    1, 0.34       2, 0.38       3, 0.28
  2701 2348-61-48      61    48.00       2211.    
     MULTIPLE LAYERS AND PROPORTIONS :    1, 0.34       2, 0.38       3, 0.28
  2702 2348-66-24      66    24.00       2178.    
     MULTIPLE LAYERS AND PROPORTIONS :    1, 0.34       2, 0.38       3, 0.28
  2703 2348-71-365     71    365.0       2205.    
     MULTIPLE LAYERS AND PROPORTIONS :    1, 0.34       2, 0.38       3, 0.28
  2704 2347-42-364     42    364.0       2259.    
  2705 2347-48-337     48    337.0       2252.    
  2706 2347-56-18      56    18.00       2242.    
  2707 2347-61-48      61    48.00       2222.    
  2708 2347-66-24      66    24.00       2187.    
  2709 2380-61-48      61    48.00       2240.    
  2710 2392-61-48      61    48.00       2242.    
  2711 2391-61-48      61    48.00       2240.    
  2712 2391-66-25      66    25.00       2195.    
  2713 2374-66-40      66    40.00       2191.    
  2714 2374-71-365     71    365.0       2221.    
  2715 2354-16-361     16    361.0       2331.    
  2716 2353-48-274     48    274.0       2274.    
  2717 2352-22-65      22    65.00       2336.    
  2718 2351-66-45      66    45.00       2366.    
  2719 2351-71-42      71    42.00       2367.    
  2720 2351-71-365     71    365.0       2368.    
  2721 2341-55-348     55    348.0       2402.    
  2722 2341-66-45      66    45.00       2396.    
  2723 2341-71-42      71    42.00       2399.    
  2724 2341-71-365     71    365.0       2403.    
  2725 2350-42-355     42    355.0       2373.    
  2726 2350-48-355     48    355.0       2372.    
  2727 2350-55-348     55    348.0       2373.    
  2728 2350-61-3       61    3.000       2371.    
  2729 2350-71-42      71    42.00       2367.    
  2730 2350-71-365     71    365.0       2368.    
  2731 2358-48-306     48    306.0       2396.    
  2732 2215-1-357       1    357.0       2435.    
 Observation within a steady-state time step has been moved to the end of the time step.
  2733 2215-6-295       6    295.0       2429.    
  2734 2215-10-349     10    349.0       2430.    
  2735 2215-22-68      22    68.00       2427.    
  2736 2215-31-335     31    335.0       2427.    
  2737 2215-33-1       33    1.000       2433.    
  2738 2215-39-60      39    60.00       2425.    
  2739 2215-42-356     42    356.0       2425.    
  2740 2215-48-336     48    336.0       2428.    
  2741 2164-48-337     48    337.0       2411.    
  2742 2164-56-24      56    24.00       2419.    
  2743 2164-61-54      61    54.00       2410.    
  2744 2164-66-24      66    24.00       2417.    
  2745 2164-71-41      71    41.00       2416.    
  2746 2135-48-337     48    337.0       2421.    
     MULTIPLE LAYERS AND PROPORTIONS :    1, 0.74       2, 0.26
  2747 2135-56-24      56    24.00       2428.    
     MULTIPLE LAYERS AND PROPORTIONS :    1, 0.74       2, 0.26
  2748 2135-61-55      61    55.00       2415.    
     MULTIPLE LAYERS AND PROPORTIONS :    1, 0.74       2, 0.26
  2749 2135-66-26      66    26.00       2427.    
     MULTIPLE LAYERS AND PROPORTIONS :    1, 0.74       2, 0.26
  2750 2135-71-42      71    42.00       2427.    
     MULTIPLE LAYERS AND PROPORTIONS :    1, 0.74       2, 0.26
  2751 2238-56-23      56    23.00       2443.    
  2752 2334-22-67      22    67.00       2386.    
  2753 2334-26-349     26    349.0       2386.    
  2754 2334-33-60      33    60.00       2381.    
  2755 2334-42-363     42    363.0       2387.    
  2756 2334-48-274     48    274.0       2394.    
  2757 2334-55-321     55    321.0       2395.    
  2758 2334-60-319     60    319.0       2396.    
  2759 2334-65-326     65    326.0       2388.    
  2760 2334-71-14      71    14.00       2393.    
  2761 2334-71-42      71    42.00       2391.    
  2762 2334-71-365     71    365.0       2396.    
  2763 2225-55-321     55    321.0       2384.    
  2764 2223-55-279     55    279.0       2360.    
  2765 2223-61-47      61    47.00       2357.    
  2766 2223-66-32      66    32.00       2375.    
  2767 2223-71-14      71    14.00       2337.    
  2768 2223-71-365     71    365.0       2364.    
  2769 2224-55-321     55    321.0       2382.    
  2770 2224-61-47      61    47.00       2358.    
  2771 2224-66-32      66    32.00       2371.    
  2772 2142-48-274     48    274.0       2338.    
  2773 2150-48-306     48    306.0       2340.    
  2774 2150-55-321     55    321.0       2336.    
  2775 2141-48-274     48    274.0       2337.    
  2776 2141-55-321     55    321.0       2328.    
  2777 2141-61-47      61    47.00       2327.    
  2778 2141-71-14      71    14.00       2313.    
  2779 2141-71-365     71    365.0       2336.    
  2780 2140-48-274     48    274.0       2358.    
  2781 2140-55-321     55    321.0       2348.    
  2782 2140-66-18      66    18.00       2338.    
     MULTIPLE LAYERS AND PROPORTIONS :    1, 0.62       2, 0.38
  2783 2209-27-11      27    11.00       2417.    
  2784 2209-31-351     31    351.0       2416.    
  2785 2209-37-343     37    343.0       2408.    
  2786 2208-56-23      56    23.00       2417.    
  2787 2208-60-321     60    321.0       2410.    
  2788 2208-65-299     65    299.0       2408.    
  2789 2208-71-32      71    32.00       2408.    
  2790 2208-71-365     71    365.0       2407.    
  2791 2206-48-274     48    274.0       2414.    
     MULTIPLE LAYERS AND PROPORTIONS :    1, 0.74       2, 0.26
  2792 2206-55-321     55    321.0       2407.    
     MULTIPLE LAYERS AND PROPORTIONS :    1, 0.74       2, 0.26
  2793 2206-61-47      61    47.00       2405.    
     MULTIPLE LAYERS AND PROPORTIONS :    1, 0.74       2, 0.26
  2794 2206-71-14      71    14.00       2394.    
     MULTIPLE LAYERS AND PROPORTIONS :    1, 0.74       2, 0.26
  2795 2206-71-365     71    365.0       2399.    
     MULTIPLE LAYERS AND PROPORTIONS :    1, 0.74       2, 0.26
  2796 2182-55-321     55    321.0       2385.    
  2797 2174-55-279     55    279.0       2360.    
  2798 2174-60-319     60    319.0       2380.    
  2799 2174-65-326     65    326.0       2355.    
  2800 2174-71-14      71    14.00       2338.    
  2801 2174-71-365     71    365.0       2373.    
  2802 2181-55-321     55    321.0       2368.    
  2803 2181-61-47      61    47.00       2366.    
  2804 2139-1-357       1    357.0       2407.    
 Observation within a steady-state time step has been moved to the end of the time step.
  2805 2138-48-274     48    274.0       2392.    
  2806 2138-55-321     55    321.0       2390.    
  2807 2138-61-47      61    47.00       2391.    
  2808 2138-66-24      66    24.00       2397.    
  2809 2138-71-14      71    14.00       2366.    
  2810 2138-71-365     71    365.0       2393.    
  2811 2253-16-361     16    361.0       2366.    
  2812 2251-48-274     48    274.0       2395.    
     MULTIPLE LAYERS AND PROPORTIONS :    1, 0.95       2, 0.05
  2813 2251-55-321     55    321.0       2391.    
     MULTIPLE LAYERS AND PROPORTIONS :    1, 0.95       2, 0.05
  2814 2314-12-116     12    116.0       2371.    
     MULTIPLE LAYERS AND PROPORTIONS :    1, 0.80       2, 0.20
  2815 2314-22-67      22    67.00       2372.    
  2816 2314-33-60      33    60.00       2367.    
  2817 2290-7-322       7    322.0       2357.    
  2818 2290-10-32      10    32.00       2363.    
  2819 2290-42-364     42    364.0       2348.    
  2820 2290-48-355     48    355.0       2356.    
  2821 2290-55-348     55    348.0       2378.    
  2822 2290-65-354     65    354.0       2361.    
  2823 2290-71-42      71    42.00       2379.    
  2824 2290-71-365     71    365.0       2357.    
  2825 2286-42-357     42    357.0       2345.    
     MULTIPLE LAYERS AND PROPORTIONS :    1, 0.50       2, 0.50
  2826 2286-48-355     48    355.0       2344.    
     MULTIPLE LAYERS AND PROPORTIONS :    1, 0.50       2, 0.50
  2827 2286-61-3       61    3.000       2351.    
     MULTIPLE LAYERS AND PROPORTIONS :    1, 0.50       2, 0.50
  2828 2286-66-45      66    45.00       2371.    
     MULTIPLE LAYERS AND PROPORTIONS :    1, 0.50       2, 0.50
  2829 2287-42-357     42    357.0       2358.    
  2830 2287-61-3       61    3.000       2363.    
  2831 2287-71-42      71    42.00       2383.    
  2832 2287-71-365     71    365.0       2360.    
  2833 2278-22-67      22    67.00       2363.    
     MULTIPLE LAYERS AND PROPORTIONS :    1, 0.28       2, 0.72
  2834 2278-26-362     26    362.0       2379.    
     MULTIPLE LAYERS AND PROPORTIONS :    1, 0.28       2, 0.72
  2835 2278-31-335     31    335.0       2357.    
     MULTIPLE LAYERS AND PROPORTIONS :    1, 0.28       2, 0.72
  2836 2278-33-60      33    60.00       2364.    
     MULTIPLE LAYERS AND PROPORTIONS :    1, 0.28       2, 0.72
  2837 2278-48-274     48    274.0       2365.    
     MULTIPLE LAYERS AND PROPORTIONS :    1, 0.28       2, 0.72
  2838 2129-66-40      66    40.00       2194.    
  2839 2129-71-42      71    42.00       2229.    
  2840 2129-71-365     71    365.0       2235.    
  2841 2146-7-1         7    1.000       2375.    
  2842 2146-11-86      11    86.00       2363.    
  2843 2146-22-67      22    67.00       2347.    
  2844 2146-37-263     37    263.0       2287.    
  2845 2147-42-363     42    363.0       2279.    
  2846 2147-48-362     48    362.0       2265.    
  2847 2147-55-349     55    349.0       2260.    
  2848 2145-2-132       2    132.0       2385.    
  2849 2144-2-132       2    132.0       2390.    
  2850 2126-48-274     48    274.0       2297.    
  2851 2126-55-321     55    321.0       2282.    
  2852 2126-61-47      61    47.00       2279.    
  2853 2126-71-14      71    14.00       2274.    
  2854 2126-71-365     71    365.0       2290.    
  2855 2315-10-262     10    262.0       2351.    
  2856 2288-10-262     10    262.0       2361.    
  2857 2248-56-23      56    23.00       2268.    
     MULTIPLE LAYERS AND PROPORTIONS :    1, 0.52       2, 0.48
  2858 2239-16-361     16    361.0       2347.    
  2859 2239-22-32      22    32.00       2337.    
  2860 2239-27-10      27    10.00       2328.    
  2861 2239-56-23      56    23.00       2274.    
  2862 2267-56-25      56    25.00       2257.    
  2863 2255-22-65      22    65.00       2326.    
  2864 2255-32-60      32    60.00       2302.    
  2865 2255-38-60      38    60.00       2294.    
  2866 2240-56-25      56    25.00       2269.    
  2867 2240-66-32      66    32.00       2195.    
  2868 2240-71-54      71    54.00       2245.    
  2869 2114-61-49      61    49.00       2224.    
  2870 2114-66-40      66    40.00       2195.    
  2871 2114-71-42      71    42.00       2225.    
  2872 2114-71-365     71    365.0       2238.    
  2873 2191-56-23      56    23.00       2242.    
  2874 2191-61-61      61    61.00       2224.    
  2875 2191-66-25      66    25.00       2194.    
  2876 2210-48-334     48    334.0       2283.    
  2877 2210-55-321     55    321.0       2270.    
  2878 2210-61-47      61    47.00       2259.    
  2879 2210-66-24      66    24.00       2229.    
  2880 2210-71-42      71    42.00       2225.    
  2881 2210-71-365     71    365.0       2238.    
  2882 2162-48-274     48    274.0       2254.    
  2883 2162-65-354     65    354.0       2184.    
  2884 2162-71-42      71    42.00       2213.    
  2885 2162-71-365     71    365.0       2224.    
  2886 2298-61-48      61    48.00       2210.    
     MULTIPLE LAYERS AND PROPORTIONS :    1, 0.14       2, 0.54       3, 0.32
  2887 2298-66-24      66    24.00       2176.    
     MULTIPLE LAYERS AND PROPORTIONS :    1, 0.14       2, 0.54       3, 0.32
  2888 2298-71-14      71    14.00       2191.    
     MULTIPLE LAYERS AND PROPORTIONS :    1, 0.14       2, 0.54       3, 0.32
  2889 2298-71-365     71    365.0       2205.    
     MULTIPLE LAYERS AND PROPORTIONS :    1, 0.14       2, 0.54       3, 0.32
  2890 2250-22-69      22    69.00       2301.    
  2891 2250-27-61      27    61.00       2307.    
  2892 2227-42-363     42    363.0       2240.    
     MULTIPLE LAYERS AND PROPORTIONS :    1, 0.53       2, 0.27       3, 0.20
  2893 2227-48-365     48    365.0       2217.    
     MULTIPLE LAYERS AND PROPORTIONS :    1, 0.53       2, 0.27       3, 0.20
  2894 2227-55-349     55    349.0       2199.    
     MULTIPLE LAYERS AND PROPORTIONS :    1, 0.53       2, 0.27       3, 0.20
  2895 2227-61-54      61    54.00       2174.    
     MULTIPLE LAYERS AND PROPORTIONS :    1, 0.53       2, 0.27       3, 0.20
  2896 2227-66-45      66    45.00       2151.    
     MULTIPLE LAYERS AND PROPORTIONS :    1, 0.53       2, 0.27       3, 0.20
  2897 2227-71-49      71    49.00       2170.    
     MULTIPLE LAYERS AND PROPORTIONS :    1, 0.53       2, 0.27       3, 0.20
  2898 2227-71-365     71    365.0       2178.    
     MULTIPLE LAYERS AND PROPORTIONS :    1, 0.53       2, 0.28       3, 0.19
  2899 2152-22-68      22    68.00       2316.    
  2900 2263-10-144     10    144.0       2292.    
  2901 2276-22-61      22    61.00       2265.    
     MULTIPLE LAYERS AND PROPORTIONS :    1, 0.88       2, 0.12
  2902 2276-26-301     26    301.0       2254.    
     MULTIPLE LAYERS AND PROPORTIONS :    1, 0.88       2, 0.12
  2903 2276-48-362     48    362.0       2208.    
     MULTIPLE LAYERS AND PROPORTIONS :    1, 0.88       2, 0.12
  2904 2276-55-349     55    349.0       2193.    
     MULTIPLE LAYERS AND PROPORTIONS :    1, 0.88       2, 0.12
  2905 2276-61-33      61    33.00       2176.    
     MULTIPLE LAYERS AND PROPORTIONS :    1, 0.88       2, 0.12
  2906 2276-66-32      66    32.00       2153.    
     MULTIPLE LAYERS AND PROPORTIONS :    1, 0.88       2, 0.12
  2907 2276-71-14      71    14.00       2154.    
     MULTIPLE LAYERS AND PROPORTIONS :    1, 0.88       2, 0.12
  2908 2276-71-41      71    41.00       2163.    
     MULTIPLE LAYERS AND PROPORTIONS :    1, 0.88       2, 0.12
  2909 2276-71-365     71    365.0       2168.    
     MULTIPLE LAYERS AND PROPORTIONS :    1, 0.88       2, 0.12
  2910 2229-61-33      61    33.00       2163.    
  2911 2229-66-32      66    32.00       2144.    
  2912 2229-71-14      71    14.00       2160.    
  2913 2229-71-41      71    41.00       2160.    
  2914 2229-71-365     71    365.0       2165.    
  2915 2235-42-335     42    335.0       2226.    
  2916 2130-8-49        8    49.00       2299.    
  2917 2130-12-58      12    58.00       2285.    
  2918 2130-17-87      17    87.00       2271.    
  2919 2130-22-79      22    79.00       2267.    
  2920 2130-32-60      32    60.00       2246.    
  2921 2130-42-363     42    363.0       2218.    
  2922 2130-48-362     48    362.0       2201.    
  2923 2153-48-362     48    362.0       2195.    
     MULTIPLE LAYERS AND PROPORTIONS :    1, 0.54       2, 0.46
  2924 2153-55-349     55    349.0       2174.    
     MULTIPLE LAYERS AND PROPORTIONS :    1, 0.54       2, 0.46
  2925 2153-61-33      61    33.00       2157.    
     MULTIPLE LAYERS AND PROPORTIONS :    1, 0.54       2, 0.46
  2926 2153-71-41      71    41.00       2153.    
     MULTIPLE LAYERS AND PROPORTIONS :    1, 0.54       2, 0.46
  2927 2153-71-365     71    365.0       2157.    
     MULTIPLE LAYERS AND PROPORTIONS :    1, 0.54       2, 0.46
  2928 2217-66-32      66    32.00       2149.    
  2929 2231-22-65      22    65.00       2279.    
  2930 2231-42-363     42    363.0       2229.    
  2931 2231-48-362     48    362.0       2209.    
  2932 2231-55-349     55    349.0       2193.    
  2933 2231-61-54      61    54.00       2170.    
  2934 2231-66-49      66    49.00       2150.    
  2935 2231-71-41      71    41.00       2166.    
  2936 2231-71-365     71    365.0       2172.    
  2937 2228-42-363     42    363.0       2226.    
     MULTIPLE LAYERS AND PROPORTIONS :    1, 0.54       2, 0.46
  2938 2228-48-362     48    362.0       2207.    
     MULTIPLE LAYERS AND PROPORTIONS :    1, 0.54       2, 0.46
  2939 2228-55-349     55    349.0       2190.    
     MULTIPLE LAYERS AND PROPORTIONS :    1, 0.54       2, 0.46
  2940 2228-61-54      61    54.00       2167.    
     MULTIPLE LAYERS AND PROPORTIONS :    1, 0.54       2, 0.46
  2941 2228-66-49      66    49.00       2146.    
     MULTIPLE LAYERS AND PROPORTIONS :    1, 0.54       2, 0.46
  2942 2228-71-41      71    41.00       2163.    
     MULTIPLE LAYERS AND PROPORTIONS :    1, 0.54       2, 0.46
  2943 2228-71-365     71    365.0       2169.    
     MULTIPLE LAYERS AND PROPORTIONS :    1, 0.54       2, 0.46
  2944 2056-12-58      12    58.00       2310.    
  2945 2056-22-66      22    66.00       2295.    
  2946 2056-27-61      27    61.00       2284.    
  2947 2032-7-32        7    32.00       2315.    
  2948 2032-12-58      12    58.00       2298.    
  2949 2032-32-83      32    83.00       2257.    
  2950 2033-42-363     42    363.0       2223.    
     MULTIPLE LAYERS AND PROPORTIONS :    1, 0.56       2, 0.44
  2951 2033-48-362     48    362.0       2197.    
     MULTIPLE LAYERS AND PROPORTIONS :    1, 0.56       2, 0.44
  2952 2033-56-34      56    34.00       2161.    
     MULTIPLE LAYERS AND PROPORTIONS :    1, 0.56       2, 0.44
  2953 2033-61-56      61    56.00       2153.    
     MULTIPLE LAYERS AND PROPORTIONS :    1, 0.56       2, 0.44
  2954 2033-66-54      66    54.00       2142.    
     MULTIPLE LAYERS AND PROPORTIONS :    1, 0.56       2, 0.44
  2955 2033-71-49      71    49.00       2159.    
     MULTIPLE LAYERS AND PROPORTIONS :    1, 0.56       2, 0.44
  2956 2033-71-365     71    365.0       2161.    
     MULTIPLE LAYERS AND PROPORTIONS :    1, 0.56       2, 0.44
  2957 2000-37-34      37    34.00       2238.    
  2958 2000-55-349     55    349.0       2170.    
  2959 2004-48-357     48    357.0       2201.    
  2960 2004-71-49      71    49.00       2165.    
  2961 2004-71-365     71    365.0       2168.    
  2962 2019-17-82      17    82.00       2303.    
     MULTIPLE LAYERS AND PROPORTIONS :    1, 0.69       2, 0.31
  2963 2019-22-69      22    69.00       2296.    
     MULTIPLE LAYERS AND PROPORTIONS :    1, 0.69       2, 0.31
  2964 2019-42-335     42    335.0       2229.    
     MULTIPLE LAYERS AND PROPORTIONS :    1, 0.69       2, 0.31
  2965 2019-48-365     48    365.0       2203.    
     MULTIPLE LAYERS AND PROPORTIONS :    1, 0.69       2, 0.31
  2966 2019-66-40      66    40.00       2144.    
     MULTIPLE LAYERS AND PROPORTIONS :    1, 0.69       2, 0.31
  2967 2019-71-49      71    49.00       2164.    
     MULTIPLE LAYERS AND PROPORTIONS :    1, 0.69       2, 0.31
  2968 2019-71-365     71    365.0       2169.    
     MULTIPLE LAYERS AND PROPORTIONS :    1, 0.69       2, 0.31
  2969 2015-66-40      66    40.00       2141.    
  2970 2015-71-49      71    49.00       2161.    
  2971 2015-71-365     71    365.0       2166.    
  2972 2023-42-363     42    363.0       2228.    
     MULTIPLE LAYERS AND PROPORTIONS :    1, 0.32       2, 0.57       3, 0.11
  2973 2023-48-365     48    365.0       2202.    
     MULTIPLE LAYERS AND PROPORTIONS :    1, 0.32       2, 0.57       3, 0.11
  2974 2023-55-349     55    349.0       2167.    
     MULTIPLE LAYERS AND PROPORTIONS :    1, 0.32       2, 0.57       3, 0.11
  2975 2023-61-54      61    54.00       2153.    
     MULTIPLE LAYERS AND PROPORTIONS :    1, 0.32       2, 0.57       3, 0.11
  2976 2023-71-49      71    49.00       2161.    
     MULTIPLE LAYERS AND PROPORTIONS :    1, 0.32       2, 0.57       3, 0.11
  2977 2023-71-365     71    365.0       2166.    
     MULTIPLE LAYERS AND PROPORTIONS :    1, 0.32       2, 0.57       3, 0.11
  2978 2060-48-365     48    365.0       2222.    
     MULTIPLE LAYERS AND PROPORTIONS :    1, 0.46       2, 0.54
  2979 2060-55-356     55    356.0       2188.    
     MULTIPLE LAYERS AND PROPORTIONS :    1, 0.46       2, 0.54
  2980 2060-61-54      61    54.00       2164.    
     MULTIPLE LAYERS AND PROPORTIONS :    1, 0.46       2, 0.54
  2981 2060-66-19      66    19.00       2151.    
     MULTIPLE LAYERS AND PROPORTIONS :    1, 0.46       2, 0.54
  2982 2060-71-42      71    42.00       2177.    
     MULTIPLE LAYERS AND PROPORTIONS :    1, 0.46       2, 0.54
  2983 2060-71-365     71    365.0       2185.    
     MULTIPLE LAYERS AND PROPORTIONS :    1, 0.46       2, 0.54
  2984 2115-22-66      22    66.00       2303.    
  2985 2105-42-363     42    363.0       2241.    
     MULTIPLE LAYERS AND PROPORTIONS :    1, 0.49       2, 0.51
  2986 2105-48-362     48    362.0       2214.    
     MULTIPLE LAYERS AND PROPORTIONS :    1, 0.49       2, 0.51
  2987 2105-56-33      56    33.00       2183.    
     MULTIPLE LAYERS AND PROPORTIONS :    1, 0.49       2, 0.51
  2988 2105-61-33      61    33.00       2164.    
     MULTIPLE LAYERS AND PROPORTIONS :    1, 0.49       2, 0.51
  2989 2105-66-32      66    32.00       2144.    
     MULTIPLE LAYERS AND PROPORTIONS :    1, 0.49       2, 0.51
  2990 2105-71-42      71    42.00       2167.    
     MULTIPLE LAYERS AND PROPORTIONS :    1, 0.49       2, 0.51
  2991 2105-71-365     71    365.0       2174.    
     MULTIPLE LAYERS AND PROPORTIONS :    1, 0.49       2, 0.51
  2992 2098-65-354     65    354.0       2136.    
  2993 2098-71-42      71    42.00       2167.    
  2994 2098-71-365     71    365.0       2174.    
  2995 2103-42-363     42    363.0       2240.    
     MULTIPLE LAYERS AND PROPORTIONS :    1, 0.64       2, 0.36
  2996 2103-48-362     48    362.0       2214.    
     MULTIPLE LAYERS AND PROPORTIONS :    1, 0.64       2, 0.36
  2997 2103-61-33      61    33.00       2163.    
     MULTIPLE LAYERS AND PROPORTIONS :    1, 0.64       2, 0.36
  2998 2103-66-32      66    32.00       2143.    
     MULTIPLE LAYERS AND PROPORTIONS :    1, 0.64       2, 0.36
  2999 2103-71-42      71    42.00       2166.    
     MULTIPLE LAYERS AND PROPORTIONS :    1, 0.64       2, 0.36
  3000 2103-71-365     71    365.0       2173.    
     MULTIPLE LAYERS AND PROPORTIONS :    1, 0.64       2, 0.36
  3001 2055-22-66      22    66.00       2304.    
  3002 2055-32-83      32    83.00       2278.    
  3003 2014-12-66      12    66.00       2336.    
  3004 2014-22-69      22    69.00       2316.    
  3005 2014-27-3       27    3.000       2305.    
  3006 2014-42-363     42    363.0       2244.    
  3007 2014-48-357     48    357.0       2217.    
  3008 2014-66-19      66    19.00       2145.    
  3009 2014-71-42      71    42.00       2170.    
  3010 2014-71-365     71    365.0       2177.    
  3011 2013-42-363     42    363.0       2241.    
     MULTIPLE LAYERS AND PROPORTIONS :    1, 0.30       2, 0.70
  3012 2013-48-357     48    357.0       2214.    
     MULTIPLE LAYERS AND PROPORTIONS :    1, 0.30       2, 0.70
  3013 2013-55-350     55    350.0       2174.    
     MULTIPLE LAYERS AND PROPORTIONS :    1, 0.30       2, 0.70
  3014 2013-61-33      61    33.00       2152.    
     MULTIPLE LAYERS AND PROPORTIONS :    1, 0.30       2, 0.70
  3015 2013-66-19      66    19.00       2142.    
     MULTIPLE LAYERS AND PROPORTIONS :    1, 0.30       2, 0.70
  3016 2013-71-42      71    42.00       2167.    
     MULTIPLE LAYERS AND PROPORTIONS :    1, 0.30       2, 0.70
  3017 2013-71-365     71    365.0       2174.    
     MULTIPLE LAYERS AND PROPORTIONS :    1, 0.30       2, 0.70
  3018 1974-22-79      22    79.00       2318.    
  3019 1974-26-307     26    307.0       2301.    
  3020 1974-42-363     42    363.0       2246.    
  3021 1974-48-357     48    357.0       2218.    
  3022 1966-42-363     42    363.0       2245.    
     MULTIPLE LAYERS AND PROPORTIONS :    1, 0.76       2, 0.24
  3023 1966-48-350     48    350.0       2223.    
     MULTIPLE LAYERS AND PROPORTIONS :    1, 0.76       2, 0.24
  3024 1966-55-350     55    350.0       2165.    
     MULTIPLE LAYERS AND PROPORTIONS :    1, 0.76       2, 0.24
  3025 1966-61-33      61    33.00       2154.    
     MULTIPLE LAYERS AND PROPORTIONS :    1, 0.76       2, 0.24
  3026 1966-66-19      66    19.00       2145.    
     MULTIPLE LAYERS AND PROPORTIONS :    1, 0.76       2, 0.24
  3027 1966-71-49      71    49.00       2171.    
     MULTIPLE LAYERS AND PROPORTIONS :    1, 0.76       2, 0.24
  3028 1966-71-365     71    365.0       2177.    
     MULTIPLE LAYERS AND PROPORTIONS :    1, 0.76       2, 0.24
  3029 1972-71-49      71    49.00       2170.    
  3030 1972-71-365     71    365.0       2176.    
  3031 2036-11-305     11    305.0       2344.    
  3032 2035-48-365     48    365.0       2231.    
     MULTIPLE LAYERS AND PROPORTIONS :    1, 0.41       2, 0.44       3, 0.15
  3033 2035-56-18      56    18.00       2185.    
     MULTIPLE LAYERS AND PROPORTIONS :    1, 0.41       2, 0.44       3, 0.15
  3034 2035-61-54      61    54.00       2162.    
     MULTIPLE LAYERS AND PROPORTIONS :    1, 0.41       2, 0.44       3, 0.15
  3035 2035-66-45      66    45.00       2155.    
     MULTIPLE LAYERS AND PROPORTIONS :    1, 0.41       2, 0.44       3, 0.15
  3036 2035-71-42      71    42.00       2184.    
     MULTIPLE LAYERS AND PROPORTIONS :    1, 0.41       2, 0.44       3, 0.15
  3037 2035-71-365     71    365.0       2192.    
     MULTIPLE LAYERS AND PROPORTIONS :    1, 0.41       2, 0.44       3, 0.15
  3038 1999-22-69      22    69.00       2326.    
  3039 1999-26-349     26    349.0       2314.    
  3040 1999-32-73      32    73.00       2299.    
  3041 1999-42-363     42    363.0       2250.    
  3042 1999-48-357     48    357.0       2223.    
  3043 1999-55-353     55    353.0       2185.    
  3044 1999-60-309     60    309.0       2168.    
  3045 1999-66-28      66    28.00       2150.    
  3046 1999-71-42      71    42.00       2176.    
  3047 1999-71-365     71    365.0       2184.    
  3048 1957-12-66      12    66.00       2349.    
  3049 1957-22-79      22    79.00       2326.    
  3050 1957-27-3       27    3.000       2317.    
  3051 1957-32-60      32    60.00       2301.    
  3052 1957-42-363     42    363.0       2251.    
  3053 1957-48-357     48    357.0       2224.    
  3054 1957-55-353     55    353.0       2183.    
  3055 1957-60-306     60    306.0       2159.    
  3056 1957-66-19      66    19.00       2149.    
  3057 1957-71-42      71    42.00       2176.    
  3058 1957-71-365     71    365.0       2183.    
  3059 2125-48-306     48    306.0       2306.    
  3060 2125-55-321     55    321.0       2297.    
  3061 2086-48-274     48    274.0       2286.    
  3062 2086-56-48      56    48.00       2275.    
  3063 2086-61-47      61    47.00       2260.    
  3064 2086-66-26      66    26.00       2236.    
  3065 2086-71-14      71    14.00       2266.    
  3066 2086-71-365     71    365.0       2276.    
  3067 2102-26-349     26    349.0       2337.    
     MULTIPLE LAYERS AND PROPORTIONS :    1, 0.19       2, 0.81
  3068 2102-48-274     48    274.0       2272.    
     MULTIPLE LAYERS AND PROPORTIONS :    1, 0.19       2, 0.81
  3069 2102-55-321     55    321.0       2250.    
     MULTIPLE LAYERS AND PROPORTIONS :    1, 0.19       2, 0.81
  3070 2102-60-319     60    319.0       2236.    
     MULTIPLE LAYERS AND PROPORTIONS :    1, 0.19       2, 0.81
  3071 2102-66-1       66    1.000       2213.    
     MULTIPLE LAYERS AND PROPORTIONS :    1, 0.19       2, 0.81
  3072 2102-71-42      71    42.00       2243.    
     MULTIPLE LAYERS AND PROPORTIONS :    1, 0.19       2, 0.81
  3073 2102-71-365     71    365.0       2253.    
     MULTIPLE LAYERS AND PROPORTIONS :    1, 0.19       2, 0.81
  3074 2054-39-31      39    31.00       2277.    
     MULTIPLE LAYERS AND PROPORTIONS :    1, 0.31       2, 0.69
  3075 2054-48-357     48    357.0       2251.    
     MULTIPLE LAYERS AND PROPORTIONS :    1, 0.31       2, 0.69
  3076 2054-55-349     55    349.0       2217.    
     MULTIPLE LAYERS AND PROPORTIONS :    1, 0.31       2, 0.69
  3077 2054-61-3       61    3.000       2190.    
     MULTIPLE LAYERS AND PROPORTIONS :    1, 0.31       2, 0.69
  3078 2054-66-40      66    40.00       2178.    
     MULTIPLE LAYERS AND PROPORTIONS :    1, 0.31       2, 0.69
  3079 2054-71-42      71    42.00       2206.    
     MULTIPLE LAYERS AND PROPORTIONS :    1, 0.31       2, 0.69
  3080 2054-71-365     71    365.0       2214.    
     MULTIPLE LAYERS AND PROPORTIONS :    1, 0.31       2, 0.69
  3081 2063-22-69      22    69.00       2354.    
  3082 1996-11-86      11    86.00       2369.    
  3083 1997-22-60      22    60.00       2344.    
  3084 1997-32-60      32    60.00       2306.    
  3085 1997-55-349     55    349.0       2199.    
  3086 1997-65-354     65    354.0       2163.    
  3087 1997-71-42      71    42.00       2191.    
  3088 1997-71-365     71    365.0       2199.    
  3089 1949-48-334     48    334.0       2226.    
  3090 1949-56-17      56    17.00       2197.    
  3091 1942-56-17      56    17.00       2198.    
     MULTIPLE LAYERS AND PROPORTIONS :    1, 0.16       2, 0.84
  3092 1942-61-53      61    53.00       2161.    
     MULTIPLE LAYERS AND PROPORTIONS :    1, 0.16       2, 0.84
  3093 1942-66-19      66    19.00       2167.    
     MULTIPLE LAYERS AND PROPORTIONS :    1, 0.16       2, 0.84
  3094 1942-71-42      71    42.00       2192.    
     MULTIPLE LAYERS AND PROPORTIONS :    1, 0.16       2, 0.84
  3095 1942-71-365     71    365.0       2199.    
     MULTIPLE LAYERS AND PROPORTIONS :    1, 0.16       2, 0.84
  3096 1943-33-314     33    314.0       2310.    
  3097 2078-65-355     65    355.0       2293.    
  3098 2078-71-42      71    42.00       2295.    
  3099 2078-71-365     71    365.0       2311.    
  3100 2072-16-364     16    364.0       2386.    
  3101 2072-27-10      27    10.00       2370.    
  3102 2030-42-362     42    362.0       2302.    
     MULTIPLE LAYERS AND PROPORTIONS :    1, 0.56       2, 0.44
  3103 2030-48-357     48    357.0       2279.    
     MULTIPLE LAYERS AND PROPORTIONS :    1, 0.56       2, 0.44
  3104 2030-55-348     55    348.0       2271.    
     MULTIPLE LAYERS AND PROPORTIONS :    1, 0.56       2, 0.44
  3105 2030-61-3       61    3.000       2261.    
     MULTIPLE LAYERS AND PROPORTIONS :    1, 0.56       2, 0.44
  3106 2030-65-355     65    355.0       2258.    
     MULTIPLE LAYERS AND PROPORTIONS :    1, 0.56       2, 0.44
  3107 2030-71-42      71    42.00       2270.    
     MULTIPLE LAYERS AND PROPORTIONS :    1, 0.56       2, 0.44
  3108 2030-71-365     71    365.0       2276.    
     MULTIPLE LAYERS AND PROPORTIONS :    1, 0.56       2, 0.44
  3109 2082-22-32      22    32.00       2373.    
     MULTIPLE LAYERS AND PROPORTIONS :    1, 0.77       2, 0.23
  3110 2081-8-101       8    101.0       2392.    
  3111 2081-12-109     12    109.0       2384.    
  3112 2081-22-68      22    68.00       2370.    
  3113 2081-42-364     42    364.0       2318.    
  3114 2081-56-18      56    18.00       2301.    
  3115 2081-71-13      71    13.00       2288.    
  3116 2081-71-365     71    365.0       2286.    
  3117 2101-8-51        8    51.00       2389.    
  3118 2101-11-86      11    86.00       2381.    
  3119 2101-22-32      22    32.00       2365.    
  3120 2101-27-10      27    10.00       2363.    
  3121 1986-27-81      27    81.00       2345.    
     MULTIPLE LAYERS AND PROPORTIONS :    1, 0.59       2, 0.41
  3122 1986-42-362     42    362.0       2280.    
     MULTIPLE LAYERS AND PROPORTIONS :    1, 0.59       2, 0.41
  3123 1986-48-334     48    334.0       2249.    
     MULTIPLE LAYERS AND PROPORTIONS :    1, 0.59       2, 0.41
  3124 1986-55-321     55    321.0       2221.    
     MULTIPLE LAYERS AND PROPORTIONS :    1, 0.59       2, 0.41
  3125 1986-61-47      61    47.00       2189.    
     MULTIPLE LAYERS AND PROPORTIONS :    1, 0.59       2, 0.41
  3126 1986-66-32      66    32.00       2184.    
     MULTIPLE LAYERS AND PROPORTIONS :    1, 0.59       2, 0.41
  3127 1986-71-14      71    14.00       2211.    
     MULTIPLE LAYERS AND PROPORTIONS :    1, 0.59       2, 0.41
  3128 1986-71-42      71    42.00       2210.    
     MULTIPLE LAYERS AND PROPORTIONS :    1, 0.59       2, 0.41
  3129 1986-71-365     71    365.0       2216.    
     MULTIPLE LAYERS AND PROPORTIONS :    1, 0.59       2, 0.41
  3130 1956-32-83      32    83.00       2331.    
  3131 1956-37-34      37    34.00       2320.    
  3132 1948-48-274     48    274.0       2256.    
     MULTIPLE LAYERS AND PROPORTIONS :    1, 0.38       2, 0.62
  3133 2117-8-182       8    182.0       2421.    
  3134 2093-66-26      66    26.00       2423.    
     MULTIPLE LAYERS AND PROPORTIONS :    1, 0.55       2, 0.45
  3135 2071-16-364     16    364.0       2400.    
  3136 2053-56-33      56    33.00       2294.    
  3137 2053-65-355     65    355.0       2269.    
  3138 2053-71-43      71    43.00       2283.    
  3139 2053-71-365     71    365.0       2293.    
  3140 2046-61-3       61    3.000       2256.    
  3141 2046-65-355     65    355.0       2242.    
  3142 2046-71-49      71    49.00       2264.    
  3143 2046-71-365     71    365.0       2270.    
  3144 2029-66-45      66    45.00       2227.    
  3145 2029-71-43      71    43.00       2250.    
  3146 2029-71-365     71    365.0       2255.    
  3147 2026-71-43      71    43.00       2248.    
  3148 2026-71-365     71    365.0       2253.    
  3149 2028-71-43      71    43.00       2251.    
     MULTIPLE LAYERS AND PROPORTIONS :    1, 0.85       2, 0.15
  3150 2028-71-365     71    365.0       2256.    
     MULTIPLE LAYERS AND PROPORTIONS :    1, 0.85       2, 0.15
  3151 2048-56-33      56    33.00       2303.    
  3152 2048-65-355     65    355.0       2301.    
  3153 2048-71-49      71    49.00       2296.    
  3154 2048-71-365     71    365.0       2315.    
  3155 2049-55-347     55    347.0       2298.    
  3156 2049-65-355     65    355.0       2294.    
  3157 2049-71-43      71    43.00       2294.    
  3158 2049-71-365     71    365.0       2308.    
  3159 1995-22-69      22    69.00       2376.    
  3160 1995-26-280     26    280.0       2360.    
  3161 1995-42-355     42    355.0       2298.    
  3162 1995-48-357     48    357.0       2272.    
  3163 1995-56-17      56    17.00       2243.    
  3164 1995-61-3       61    3.000       2216.    
  3165 1995-65-355     65    355.0       2209.    
  3166 1995-71-43      71    43.00       2234.    
  3167 1995-71-365     71    365.0       2238.    
  3168 1947-22-79      22    79.00       2368.    
  3169 1947-26-349     26    349.0       2357.    
  3170 1947-32-73      32    73.00       2330.    
  3171 1947-39-31      39    31.00       2300.    
  3172 1947-48-355     48    355.0       2258.    
  3173 1947-55-348     55    348.0       2229.    
  3174 1947-61-3       61    3.000       2202.    
  3175 1947-66-1       66    1.000       2200.    
  3176 1947-71-43      71    43.00       2220.    
  3177 1947-71-365     71    365.0       2224.    
  3178 1985-56-25      56    25.00       2240.    
     MULTIPLE LAYERS AND PROPORTIONS :    1, 0.25       2, 0.75
  3179 1985-66-33      66    33.00       2212.    
     MULTIPLE LAYERS AND PROPORTIONS :    1, 0.25       2, 0.75
  3180 1985-71-42      71    42.00       2234.    
     MULTIPLE LAYERS AND PROPORTIONS :    1, 0.25       2, 0.75
  3181 2017-42-363     42    363.0       2298.    
     MULTIPLE LAYERS AND PROPORTIONS :    1, 0.47       2, 0.53
  3182 2017-48-337     48    337.0       2272.    
     MULTIPLE LAYERS AND PROPORTIONS :    1, 0.47       2, 0.53
  3183 2017-56-24      56    24.00       2232.    
     MULTIPLE LAYERS AND PROPORTIONS :    1, 0.47       2, 0.53
  3184 2017-61-55      61    55.00       2217.    
     MULTIPLE LAYERS AND PROPORTIONS :    1, 0.47       2, 0.53
  3185 2017-66-24      66    24.00       2211.    
     MULTIPLE LAYERS AND PROPORTIONS :    1, 0.47       2, 0.53
  3186 2017-71-42      71    42.00       2234.    
     MULTIPLE LAYERS AND PROPORTIONS :    1, 0.47       2, 0.53
  3187 1941-16-364     16    364.0       2401.    
  3188 2339-1-365       1    365.0       2477.    
 Observation within a steady-state time step has been moved to the end of the time step.
  3189 2339-12-113     12    113.0       2470.    
  3190 2339-22-74      22    74.00       2475.    
  3191 2435-11-80      11    80.00       2546.    
  3192 2435-22-72      22    72.00       2542.    
  3193 2443-48-336     48    336.0       2547.    
  3194 2443-56-20      56    20.00       2553.    
  3195 2443-61-54      61    54.00       2557.    
  3196 2443-66-24      66    24.00       2554.    
  3197 2443-71-42      71    42.00       2576.    
  3198 2379-22-74      22    74.00       2529.    
  3199 2379-42-356     42    356.0       2540.    
  3200 2379-48-336     48    336.0       2543.    
  3201 2379-56-19      56    19.00       2542.    
  3202 2379-61-55      61    55.00       2541.    
  3203 2379-66-27      66    27.00       2540.    
  3204 2379-71-42      71    42.00       2542.    
  3205 2375-42-357     42    357.0       2537.    
  3206 2375-48-350     48    350.0       2537.    
  3207 2375-55-348     55    348.0       2533.    
  3208 2375-61-48      61    48.00       2534.    
  3209 2375-65-350     65    350.0       2532.    
  3210 2375-71-55      71    55.00       2534.    
  3211 2375-71-365     71    365.0       2537.    
  3212 2338-22-74      22    74.00       2520.    
  3213 2338-48-355     48    355.0       2525.    
  3214 2338-56-5       56    5.000       2527.    
  3215 2338-61-48      61    48.00       2518.    
  3216 2338-65-350     65    350.0       2512.    
  3217 2338-71-55      71    55.00       2514.    
  3218 2338-71-365     71    365.0       2515.    
  3219 2205-22-74      22    74.00       2581.    
  3220 2200-22-85      22    85.00       2588.    
  3221 2189-61-55      61    55.00       2613.    
  3222 2173-61-60      61    60.00       2348.    
  3223 2323-22-74      22    74.00       2524.    
  3224 2193-48-336     48    336.0       2511.    
  3225 2193-56-19      56    19.00       2510.    
  3226 2193-61-55      61    55.00       2497.    
  3227 2193-66-27      66    27.00       2479.    
  3228 2193-71-42      71    42.00       2474.    
  3229 2100-12-113     12    113.0       2520.    
  3230 2100-22-75      22    75.00       2520.    
  3231 2100-42-357     42    357.0       2510.    
  3232 2100-48-336     48    336.0       2507.    
  3233 2100-55-347     55    347.0       2504.    
  3234 2100-61-48      61    48.00       2491.    
  3235 2100-65-356     65    356.0       2472.    
  3236 2100-71-42      71    42.00       2467.    
  3237 2100-71-54      71    54.00       2466.    
  3238 2100-71-365     71    365.0       2471.    
  3239 2324-27-11      27    11.00       2564.    
  3240 2324-38-91      38    91.00       2574.    
  3241 2324-42-356     42    356.0       2520.    
  3242 2324-56-20      56    20.00       2523.    
  3243 2324-66-28      66    28.00       2504.    
  3244 2324-71-63      71    63.00       2498.    
  3245 2285-22-74      22    74.00       2515.    
  3246 2285-32-67      32    67.00       2518.    
  3247 2285-38-60      38    60.00       2513.    
  3248 2285-71-63      71    63.00       2515.    
  3249 2119-42-357     42    357.0       2493.    
  3250 2119-48-355     48    355.0       2494.    
  3251 2119-55-348     55    348.0       2502.    
  3252 2119-61-49      61    49.00       2485.    
  3253 2119-71-55      71    55.00       2505.    
  3254 2119-71-365     71    365.0       2487.    
  3255 2184-33-274     33    274.0       2510.    
     MULTIPLE LAYERS AND PROPORTIONS :    1, 0.52       2, 0.48
  3256 2179-33-26      33    26.00       2473.    
  3257 2179-48-337     48    337.0       2408.    
  3258 2179-56-20      56    20.00       2452.    
  3259 2179-66-28      66    28.00       2429.    
  3260 2297-42-355     42    355.0       2484.    
  3261 2297-48-336     48    336.0       2484.    
  3262 2297-56-20      56    20.00       2475.    
  3263 2297-61-54      61    54.00       2466.    
  3264 2297-66-21      66    21.00       2455.    
  3265 2297-71-41      71    41.00       2466.    
  3266 2185-42-357     42    357.0       2455.    
  3267 2185-48-355     48    355.0       2455.    
  3268 2185-55-347     55    347.0       2455.    
  3269 2185-66-45      66    45.00       2454.    
  3270 2185-71-344     71    344.0       2454.    
  3271 2134-16-361     16    361.0       2462.    
  3272 2134-22-32      22    32.00       2459.    
  3273 2134-27-11      27    11.00       2465.    
  3274 2134-48-357     48    357.0       2452.    
  3275 2134-55-347     55    347.0       2458.    
  3276 2134-66-45      66    45.00       2458.    
  3277 2134-71-344     71    344.0       2450.    
  3278 2091-61-55      61    55.00       2458.    
  3279 2091-66-26      66    26.00       2475.    
  3280 2091-71-55      71    55.00       2473.    
  3281 2097-48-337     48    337.0       2447.    
  3282 2097-56-23      56    23.00       2454.    
  3283 2097-66-26      66    26.00       2455.    
  3284 2097-71-55      71    55.00       2455.    
  3285 2068-12-281     12    281.0       2453.    
  3286 2070-48-357     48    357.0       2440.    
  3287 2070-55-348     55    348.0       2456.    
  3288 2070-60-348     60    348.0       2441.    
  3289 2070-66-1       66    1.000       2451.    
  3290 2070-71-365     71    365.0       2433.    
  3291 2027-39-31      39    31.00       2345.    
  3292 2025-66-26      66    26.00       2299.    
  3293 2025-71-55      71    55.00       2304.    
  3294 2010-32-67      32    67.00       2364.    
  3295 1954-32-67      32    67.00       2376.    
  3296 1954-48-355     48    355.0       2305.    
  3297 1954-55-347     55    347.0       2293.    
  3298 1954-66-45      66    45.00       2266.    
  3299 1954-71-344     71    344.0       2283.    
  3300 1963-32-85      32    85.00       2370.    
  3301 1963-42-357     42    357.0       2326.    
  3302 1963-48-355     48    355.0       2304.    
  3303 1963-55-348     55    348.0       2291.    
  3304 1963-61-49      61    49.00       2274.    
  3305 1963-65-356     65    356.0       2263.    
  3306 1963-71-365     71    365.0       2282.    
  3307 2090-27-11      27    11.00       2485.    
  3308 2065-66-45      66    45.00       2433.    
  3309 2065-71-365     71    365.0       2441.    
  3310 2003-71-365     71    365.0       2445.    
  3311 1984-42-355     42    355.0       2470.    
  3312 1984-48-336     48    336.0       2463.    
  3313 2116-65-350     65    350.0       2453.    
  3314 2047-56-19      56    19.00       2480.    
  3315 2047-61-55      61    55.00       2445.    
  3316 2047-66-21      66    21.00       2418.    
  3317 2044-56-19      56    19.00       2475.    
  3318 2044-61-55      61    55.00       2440.    
  3319 2044-66-21      66    21.00       2413.    
  3320 2044-71-41      71    41.00       2429.    
  3321 2018-34-212     34    212.0       2503.    
     MULTIPLE LAYERS AND PROPORTIONS :    1, 0.68       2, 0.32
  3322 2012-1-52        1    52.00       2487.    
 Observation within a steady-state time step has been moved to the end of the time step.
  3323 2012-42-335     42    335.0       2470.    
  3324 2012-48-355     48    355.0       2465.    
  3325 2012-55-348     55    348.0       2470.    
  3326 2012-66-1       66    1.000       2417.    
  3327 2012-71-365     71    365.0       2440.    
  3328 1979-56-23      56    23.00       2478.    
  3329 1979-61-55      61    55.00       2438.    
  3330 2002-16-361     16    361.0       2488.    
  3331 2002-27-12      27    12.00       2490.    
  3332 1961-56-23      56    23.00       2472.    
  3333 1961-66-26      66    26.00       2406.    
  3334 1961-71-41      71    41.00       2420.    
  3335 2080-42-356     42    356.0       2511.    
  3336 2080-48-350     48    350.0       2506.    
  3337 2080-55-347     55    347.0       2504.    
  3338 2080-66-45      66    45.00       2465.    
  3339 2042-55-347     55    347.0       2498.    
  3340 2042-65-356     65    356.0       2451.    
  3341 2042-71-54      71    54.00       2447.    
  3342 2042-71-365     71    365.0       2454.    
  3343 1964-33-38      33    38.00       2501.    
     MULTIPLE LAYERS AND PROPORTIONS :    1, 0.16       2, 0.84
  3344 1976-42-357     42    357.0       2465.    
  3345 1976-48-355     48    355.0       2503.    
  3346 1976-55-348     55    348.0       2474.    
  3347 1976-60-305     60    305.0       2439.    
  3348 1976-66-1       66    1.000       2402.    
  3349 1976-71-55      71    55.00       2414.    
  3350 1976-71-365     71    365.0       2424.    
  3351 1970-42-356     42    356.0       2502.    
  3352 1970-48-336     48    336.0       2495.    
  3353 1970-56-19      56    19.00       2505.    
  3354 2051-43-1       43    1.000       2503.    
  3355 2051-65-356     65    356.0       2450.    
  3356 2051-71-54      71    54.00       2447.    
  3357 2051-71-365     71    365.0       2451.    
  3358 1973-11-214     11    214.0       2529.    
  3359 1969-11-190     11    190.0       2517.    
  3360 1946-66-5       66    5.000       2443.    
  3361 1946-71-22      71    22.00       2447.    
  3362 1946-71-365     71    365.0       2456.    
  3363 1967-27-87      27    87.00       2542.    
     MULTIPLE LAYERS AND PROPORTIONS :    1, 0.12       2, 0.88
  3364 1967-42-356     42    356.0       2502.    
  3365 1967-48-350     48    350.0       2494.    
  3366 1967-55-347     55    347.0       2495.    
  3367 1967-66-5       66    5.000       2444.    
     MULTIPLE LAYERS AND PROPORTIONS :    1, 0.12       2, 0.88
  3368 1967-71-22      71    22.00       2446.    
     MULTIPLE LAYERS AND PROPORTIONS :    1, 0.12       2, 0.88
  3369 1967-71-365     71    365.0       2454.    
     MULTIPLE LAYERS AND PROPORTIONS :    1, 0.12       2, 0.88
  3370 1939-42-356     42    356.0       2504.    
     MULTIPLE LAYERS AND PROPORTIONS :    2, 0.49       3, 0.51
  3371 1939-48-350     48    350.0       2495.    
     MULTIPLE LAYERS AND PROPORTIONS :    2, 0.49       3, 0.51
  3372 1939-55-347     55    347.0       2497.    
     MULTIPLE LAYERS AND PROPORTIONS :    2, 0.49       3, 0.51
  3373 1939-60-356     60    356.0       2480.    
     MULTIPLE LAYERS AND PROPORTIONS :    2, 0.49       3, 0.51
  3374 1939-71-22      71    22.00       2448.    
  3375 1939-71-365     71    365.0       2457.    
  3376 1975-16-361     16    361.0       2581.    
  3377 1975-27-12      27    12.00       2580.    
  3378 1945-56-25      56    25.00       2584.    
  3379 1945-61-54      61    54.00       2569.    
  3380 1945-66-27      66    27.00       2577.    
  3381 1945-71-41      71    41.00       2576.    
  3382 1711-42-352     42    352.0       1846.    
  3383 1711-48-350     48    350.0       1844.    
  3384 1711-55-354     55    354.0       1846.    
  3385 1711-61-21      61    21.00       1848.    
  3386 1711-66-39      66    39.00       1836.    
  3387 1711-71-7       71    7.000       1842.    
  3388 1711-71-365     71    365.0       1843.    
  3389 1555-27-24      27    24.00       1867.    
     MULTIPLE LAYERS AND PROPORTIONS :    2, 0.23       3, 0.77
  3390 1555-31-348     31    348.0       1851.    
     MULTIPLE LAYERS AND PROPORTIONS :    2, 0.23       3, 0.77
  3391 1555-37-341     37    341.0       1811.    
     MULTIPLE LAYERS AND PROPORTIONS :    2, 0.23       3, 0.77
  3392 1555-48-348     48    348.0       1846.    
     MULTIPLE LAYERS AND PROPORTIONS :    2, 0.23       3, 0.77
  3393 1555-56-27      56    27.00       1843.    
     MULTIPLE LAYERS AND PROPORTIONS :    2, 0.23       3, 0.77
  3394 1555-60-319     60    319.0       1847.    
     MULTIPLE LAYERS AND PROPORTIONS :    2, 0.23       3, 0.77
  3395 1555-65-301     65    301.0       1827.    
     MULTIPLE LAYERS AND PROPORTIONS :    2, 0.23       3, 0.77
  3396 1555-71-11      71    11.00       1841.    
     MULTIPLE LAYERS AND PROPORTIONS :    2, 0.23       3, 0.77
  3397 1555-71-365     71    365.0       1845.    
     MULTIPLE LAYERS AND PROPORTIONS :    2, 0.23       3, 0.77
  3398 1428-11-1       11    1.000       1997.    
  3399 1428-17-11      17    11.00       1983.    
  3400 1428-22-12      22    12.00       1969.    
  3401 1428-32-85      32    85.00       1946.    
  3402 1383-1-106       1    106.0       2023.    
 Observation within a steady-state time step has been moved to the end of the time step.
  3403 1383-7-337       7    337.0       2024.    
  3404 1383-12-361     12    361.0       2025.    
  3405 1819-38-13      38    13.00       1884.    
     MULTIPLE LAYERS AND PROPORTIONS :    2, 0.69       3, 0.31
  3406 1819-42-352     42    352.0       1885.    
     MULTIPLE LAYERS AND PROPORTIONS :    2, 0.69       3, 0.31
  3407 1819-55-354     55    354.0       1873.    
     MULTIPLE LAYERS AND PROPORTIONS :    2, 0.69       3, 0.31
  3408 1820-71-12      71    12.00       1977.    
  3409 1820-71-365     71    365.0       1948.    
  3410 1748-17-6       17    6.000       1946.    
     MULTIPLE LAYERS AND PROPORTIONS :    2, 0.51       3, 0.49
  3411 1748-21-335     21    335.0       1923.    
     MULTIPLE LAYERS AND PROPORTIONS :    2, 0.51       3, 0.49
  3412 1748-48-348     48    348.0       1881.    
     MULTIPLE LAYERS AND PROPORTIONS :    2, 0.51       3, 0.49
  3413 1748-60-305     60    305.0       1887.    
     MULTIPLE LAYERS AND PROPORTIONS :    2, 0.51       3, 0.49
  3414 1748-66-1       66    1.000       1901.    
     MULTIPLE LAYERS AND PROPORTIONS :    2, 0.51       3, 0.49
  3415 1748-71-8       71    8.000       1952.    
     MULTIPLE LAYERS AND PROPORTIONS :    2, 0.51       3, 0.49
  3416 1748-71-365     71    365.0       1953.    
     MULTIPLE LAYERS AND PROPORTIONS :    2, 0.51       3, 0.49
  3417 1903-71-365     71    365.0       1926.    
  3418 1862-71-365     71    365.0       1905.    
  3419 1861-65-364     65    364.0       1916.    
  3420 1861-71-365     71    365.0       1952.    
  3421 1833-71-365     71    365.0       1934.    
  3422 1770-71-365     71    365.0       1954.    
  3423 1758-71-365     71    365.0       1924.    
  3424 1709-22-38      22    38.00       1907.    
     MULTIPLE LAYERS AND PROPORTIONS :    2, 0.33       3, 0.67
  3425 1709-42-352     42    352.0       1881.    
     MULTIPLE LAYERS AND PROPORTIONS :    2, 0.33       3, 0.67
  3426 1709-55-354     55    354.0       1871.    
     MULTIPLE LAYERS AND PROPORTIONS :    2, 0.33       3, 0.67
  3427 1709-65-344     65    344.0       1908.    
     MULTIPLE LAYERS AND PROPORTIONS :    2, 0.33       3, 0.67
  3428 1709-71-365     71    365.0       1954.    
     MULTIPLE LAYERS AND PROPORTIONS :    2, 0.33       3, 0.67
  3429 1700-71-365     71    365.0       1954.    
  3430 1828-71-365     71    365.0       1954.    
  3431 1698-71-365     71    365.0       1984.    
  3432 1883-65-336     65    336.0       1858.    
  3433 1883-71-365     71    365.0       1882.    
  3434 1838-71-365     71    365.0       1856.    
  3435 1805-71-365     71    365.0       1842.    
  3436 1702-16-354     16    354.0       1930.    
     MULTIPLE LAYERS AND PROPORTIONS :    2, 0.37       3, 0.63
  3437 1702-42-352     42    352.0       1867.    
     MULTIPLE LAYERS AND PROPORTIONS :    2, 0.37       3, 0.63
  3438 1702-48-349     48    349.0       1865.    
     MULTIPLE LAYERS AND PROPORTIONS :    2, 0.37       3, 0.63
  3439 1702-55-354     55    354.0       1861.    
     MULTIPLE LAYERS AND PROPORTIONS :    2, 0.37       3, 0.63
  3440 1702-61-31      61    31.00       1873.    
     MULTIPLE LAYERS AND PROPORTIONS :    2, 0.37       3, 0.63
  3441 1702-65-344     65    344.0       1835.    
     MULTIPLE LAYERS AND PROPORTIONS :    2, 0.37       3, 0.63
  3442 1702-71-365     71    365.0       1869.    
  3443 1704-71-365     71    365.0       1865.    
  3444 1829-71-365     71    365.0       1888.    
  3445 1710-17-6       17    6.000       1935.    
     MULTIPLE LAYERS AND PROPORTIONS :    2, 0.18       3, 0.82
  3446 1710-42-352     42    352.0       1874.    
     MULTIPLE LAYERS AND PROPORTIONS :    2, 0.18       3, 0.82
  3447 1710-48-349     48    349.0       1871.    
     MULTIPLE LAYERS AND PROPORTIONS :    2, 0.18       3, 0.82
  3448 1710-55-354     55    354.0       1867.    
     MULTIPLE LAYERS AND PROPORTIONS :    2, 0.18       3, 0.82
  3449 1710-61-31      61    31.00       1882.    
     MULTIPLE LAYERS AND PROPORTIONS :    2, 0.18       3, 0.82
  3450 1710-65-344     65    344.0       1849.    
     MULTIPLE LAYERS AND PROPORTIONS :    2, 0.18       3, 0.82
  3451 1710-71-365     71    365.0       1891.    
  3452 1703-71-365     71    365.0       1899.    
  3453 1663-12-305     12    305.0       1964.    
     MULTIPLE LAYERS AND PROPORTIONS :    2, 0.25       3, 0.75
  3454 1663-42-352     42    352.0       1877.    
     MULTIPLE LAYERS AND PROPORTIONS :    2, 0.25       3, 0.75
  3455 1663-48-349     48    349.0       1873.    
     MULTIPLE LAYERS AND PROPORTIONS :    2, 0.25       3, 0.75
  3456 1663-55-354     55    354.0       1869.    
     MULTIPLE LAYERS AND PROPORTIONS :    2, 0.25       3, 0.75
  3457 1663-61-31      61    31.00       1880.    
     MULTIPLE LAYERS AND PROPORTIONS :    2, 0.25       3, 0.75
  3458 1663-65-338     65    338.0       1844.    
     MULTIPLE LAYERS AND PROPORTIONS :    2, 0.25       3, 0.75
  3459 1663-71-365     71    365.0       1891.    
  3460 1667-71-365     71    365.0       1888.    
  3461 1686-71-365     71    365.0       1980.    
  3462 1653-71-365     71    365.0       2007.    
  3463 1634-71-365     71    365.0       1985.    
  3464 1637-71-365     71    365.0       1997.    
  3465 1635-71-365     71    365.0       1936.    
  3466 1584-17-6       17    6.000       1957.    
     MULTIPLE LAYERS AND PROPORTIONS :    2, 0.41       3, 0.59
  3467 1584-22-38      22    38.00       1934.    
     MULTIPLE LAYERS AND PROPORTIONS :    2, 0.41       3, 0.59
  3468 1584-27-27      27    27.00       1919.    
     MULTIPLE LAYERS AND PROPORTIONS :    2, 0.41       3, 0.59
  3469 1584-32-85      32    85.00       1896.    
     MULTIPLE LAYERS AND PROPORTIONS :    2, 0.41       3, 0.59
  3470 1584-37-34      37    34.00       1893.    
     MULTIPLE LAYERS AND PROPORTIONS :    2, 0.41       3, 0.59
  3471 1584-42-352     42    352.0       1904.    
     MULTIPLE LAYERS AND PROPORTIONS :    2, 0.41       3, 0.59
  3472 1584-48-348     48    348.0       1898.    
     MULTIPLE LAYERS AND PROPORTIONS :    2, 0.41       3, 0.59
  3473 1584-55-354     55    354.0       1891.    
     MULTIPLE LAYERS AND PROPORTIONS :    2, 0.41       3, 0.59
  3474 1584-60-323     60    323.0       1899.    
     MULTIPLE LAYERS AND PROPORTIONS :    2, 0.41       3, 0.59
  3475 1584-65-344     65    344.0       1892.    
     MULTIPLE LAYERS AND PROPORTIONS :    2, 0.41       3, 0.59
  3476 1584-71-365     71    365.0       1958.    
     MULTIPLE LAYERS AND PROPORTIONS :    2, 0.41       3, 0.59
  3477 1585-71-365     71    365.0       1953.    
  3478 1592-71-365     71    365.0       1979.    
  3479 1591-71-365     71    365.0       1992.    
  3480 1590-71-365     71    365.0       1994.    
  3481 1650-71-365     71    365.0       1967.    
  3482 1684-48-275     48    275.0       1902.    
  3483 1684-66-20      66    20.00       1899.    
  3484 1685-48-275     48    275.0       1902.    
  3485 1685-66-20      66    20.00       1896.    
  3486 1496-21-355     21    355.0       1982.    
  3487 1496-27-27      27    27.00       1971.    
  3488 1496-32-85      32    85.00       1959.    
  3489 1496-36-91      36    91.00       1953.    
  3490 1496-56-19      56    19.00       1930.    
  3491 1491-56-19      56    19.00       1932.    
  3492 1501-16-309     16    309.0       2004.    
  3493 1497-48-300     48    300.0       1940.    
  3494 1497-55-318     55    318.0       1931.    
  3495 1497-60-313     60    313.0       1916.    
  3496 1497-65-364     65    364.0       1898.    
  3497 1497-71-350     71    350.0       1941.    
  3498 1498-48-300     48    300.0       1941.    
  3499 1498-55-318     55    318.0       1930.    
  3500 1498-60-313     60    313.0       1917.    
  3501 1498-65-364     65    364.0       1898.    
  3502 1498-71-350     71    350.0       1942.    
  3503 1442-36-1       36    1.000       1957.    
     MULTIPLE LAYERS AND PROPORTIONS :    2, 0.09       3, 0.91
  3504 1442-42-349     42    349.0       1941.    
     MULTIPLE LAYERS AND PROPORTIONS :    2, 0.09       3, 0.91
  3505 1442-48-349     48    349.0       1933.    
     MULTIPLE LAYERS AND PROPORTIONS :    2, 0.09       3, 0.91
  3506 1442-55-353     55    353.0       1923.    
     MULTIPLE LAYERS AND PROPORTIONS :    2, 0.09       3, 0.91
  3507 1442-61-21      61    21.00       1907.    
     MULTIPLE LAYERS AND PROPORTIONS :    2, 0.09       3, 0.91
  3508 1473-10-213     10    213.0       2021.    
  3509 1407-22-38      22    38.00       1991.    
     MULTIPLE LAYERS AND PROPORTIONS :    2, 0.83       3, 0.17
  3510 1407-42-349     42    349.0       1957.    
     MULTIPLE LAYERS AND PROPORTIONS :    2, 0.83       3, 0.17
  3511 1407-48-349     48    349.0       1949.    
     MULTIPLE LAYERS AND PROPORTIONS :    2, 0.83       3, 0.17
  3512 1407-55-353     55    353.0       1937.    
     MULTIPLE LAYERS AND PROPORTIONS :    2, 0.83       3, 0.17
  3513 1407-61-21      61    21.00       1916.    
     MULTIPLE LAYERS AND PROPORTIONS :    2, 0.83       3, 0.17
  3514 1407-66-34      66    34.00       1900.    
     MULTIPLE LAYERS AND PROPORTIONS :    2, 0.83       3, 0.17
  3515 1407-71-365     71    365.0       1990.    
     MULTIPLE LAYERS AND PROPORTIONS :    2, 0.83       3, 0.17
  3516 1412-71-365     71    365.0       1993.    
  3517 1393-38-335     38    335.0       1974.    
  3518 1393-42-349     42    349.0       1957.    
  3519 1393-48-349     48    349.0       1950.    
  3520 1393-55-353     55    353.0       1938.    
  3521 1393-71-365     71    365.0       2034.    
  3522 1376-36-78      36    78.00       1988.    
     MULTIPLE LAYERS AND PROPORTIONS :    2, 0.11       3, 0.89
  3523 1376-48-349     48    349.0       1957.    
     MULTIPLE LAYERS AND PROPORTIONS :    2, 0.11       3, 0.89
  3524 1376-61-21      61    21.00       1921.    
     MULTIPLE LAYERS AND PROPORTIONS :    2, 0.11       3, 0.89
  3525 1376-66-34      66    34.00       1905.    
     MULTIPLE LAYERS AND PROPORTIONS :    2, 0.11       3, 0.89
  3526 1376-71-56      71    56.00       1990.    
     MULTIPLE LAYERS AND PROPORTIONS :    2, 0.11       3, 0.89
  3527 1376-71-365     71    365.0       2019.    
  3528 1361-71-362     71    362.0       1995.    
  3529 1362-71-362     71    362.0       1995.    
  3530 1421-71-362     71    362.0       2025.    
  3531 1403-66-34      66    34.00       1900.    
  3532 1403-71-56      71    56.00       1997.    
  3533 1403-71-365     71    365.0       2031.    
  3534 1388-71-362     71    362.0       2044.    
  3535 1364-17-12      17    12.00       2001.    
  3536 1364-38-335     38    335.0       1980.    
  3537 1364-42-349     42    349.0       1961.    
  3538 1364-55-353     55    353.0       1942.    
  3539 1364-66-34      66    34.00       1904.    
  3540 1364-71-365     71    365.0       2054.    
  3541 1365-17-12      17    12.00       2006.    
     MULTIPLE LAYERS AND PROPORTIONS :    2, 0.72       3, 0.28
  3542 1365-22-6       22    6.000       1999.    
     MULTIPLE LAYERS AND PROPORTIONS :    2, 0.72       3, 0.28
  3543 1365-27-27      27    27.00       1992.    
     MULTIPLE LAYERS AND PROPORTIONS :    2, 0.72       3, 0.28
  3544 1365-32-85      32    85.00       1986.    
     MULTIPLE LAYERS AND PROPORTIONS :    2, 0.72       3, 0.28
  3545 1365-37-17      37    17.00       1983.    
     MULTIPLE LAYERS AND PROPORTIONS :    2, 0.72       3, 0.28
  3546 1365-42-349     42    349.0       1965.    
     MULTIPLE LAYERS AND PROPORTIONS :    2, 0.72       3, 0.28
  3547 1365-48-349     48    349.0       1959.    
     MULTIPLE LAYERS AND PROPORTIONS :    2, 0.72       3, 0.28
  3548 1365-55-353     55    353.0       1948.    
     MULTIPLE LAYERS AND PROPORTIONS :    2, 0.72       3, 0.28
  3549 1365-60-364     60    364.0       1925.    
     MULTIPLE LAYERS AND PROPORTIONS :    2, 0.72       3, 0.28
  3550 1365-66-1       66    1.000       1907.    
     MULTIPLE LAYERS AND PROPORTIONS :    2, 0.72       3, 0.28
  3551 1365-71-365     71    365.0       2045.    
     MULTIPLE LAYERS AND PROPORTIONS :    2, 0.72       3, 0.28
  3552 1335-71-362     71    362.0       2054.    
  3553 1313-36-114     36    114.0       1987.    
     MULTIPLE LAYERS AND PROPORTIONS :    2, 0.08       3, 0.92
  3554 1313-42-349     42    349.0       1974.    
     MULTIPLE LAYERS AND PROPORTIONS :    2, 0.08       3, 0.92
  3555 1313-48-349     48    349.0       1966.    
     MULTIPLE LAYERS AND PROPORTIONS :    2, 0.08       3, 0.92
  3556 1313-55-353     55    353.0       1953.    
     MULTIPLE LAYERS AND PROPORTIONS :    2, 0.08       3, 0.92
  3557 1313-61-21      61    21.00       1922.    
     MULTIPLE LAYERS AND PROPORTIONS :    2, 0.08       3, 0.92
  3558 1313-66-13      66    13.00       1906.    
     MULTIPLE LAYERS AND PROPORTIONS :    2, 0.08       3, 0.92
  3559 1266-17-12      17    12.00       2022.    
     MULTIPLE LAYERS AND PROPORTIONS :    2, 0.57       3, 0.43
  3560 1266-38-335     38    335.0       2003.    
     MULTIPLE LAYERS AND PROPORTIONS :    2, 0.57       3, 0.43
  3561 1266-42-349     42    349.0       1987.    
     MULTIPLE LAYERS AND PROPORTIONS :    2, 0.57       3, 0.43
  3562 1266-48-349     48    349.0       1980.    
     MULTIPLE LAYERS AND PROPORTIONS :    2, 0.57       3, 0.43
  3563 1266-56-3       56    3.000       1967.    
     MULTIPLE LAYERS AND PROPORTIONS :    2, 0.57       3, 0.43
  3564 1266-61-21      61    21.00       1938.    
     MULTIPLE LAYERS AND PROPORTIONS :    2, 0.57       3, 0.43
  3565 1266-66-12      66    12.00       1922.    
     MULTIPLE LAYERS AND PROPORTIONS :    2, 0.57       3, 0.43
  3566 1266-71-56      71    56.00       2000.    
     MULTIPLE LAYERS AND PROPORTIONS :    2, 0.57       3, 0.43
  3567 1266-71-365     71    365.0       2050.    
  3568 1258-71-362     71    362.0       2050.    
  3569 1265-17-12      17    12.00       2015.    
     MULTIPLE LAYERS AND PROPORTIONS :    2, 0.42       3, 0.58
  3570 1265-38-335     38    335.0       2003.    
     MULTIPLE LAYERS AND PROPORTIONS :    2, 0.42       3, 0.58
  3571 1265-42-349     42    349.0       1982.    
     MULTIPLE LAYERS AND PROPORTIONS :    2, 0.42       3, 0.58
  3572 1265-48-349     48    349.0       1975.    
     MULTIPLE LAYERS AND PROPORTIONS :    2, 0.42       3, 0.58
  3573 1265-55-353     55    353.0       1961.    
     MULTIPLE LAYERS AND PROPORTIONS :    2, 0.42       3, 0.58
  3574 1265-66-34      66    34.00       1917.    
     MULTIPLE LAYERS AND PROPORTIONS :    2, 0.42       3, 0.58
  3575 1265-71-56      71    56.00       1998.    
     MULTIPLE LAYERS AND PROPORTIONS :    2, 0.42       3, 0.58
  3576 1265-71-365     71    365.0       2040.    
     MULTIPLE LAYERS AND PROPORTIONS :    2, 0.42       3, 0.58
  3577 1336-17-12      17    12.00       2021.    
     MULTIPLE LAYERS AND PROPORTIONS :    2, 0.82       3, 0.18
  3578 1336-38-335     38    335.0       1988.    
     MULTIPLE LAYERS AND PROPORTIONS :    2, 0.82       3, 0.18
  3579 1336-42-349     42    349.0       1974.    
     MULTIPLE LAYERS AND PROPORTIONS :    2, 0.82       3, 0.18
  3580 1336-48-349     48    349.0       1965.    
     MULTIPLE LAYERS AND PROPORTIONS :    2, 0.82       3, 0.18
  3581 1336-55-353     55    353.0       1959.    
     MULTIPLE LAYERS AND PROPORTIONS :    2, 0.82       3, 0.18
  3582 1336-71-40      71    40.00       1955.    
     MULTIPLE LAYERS AND PROPORTIONS :    2, 0.82       3, 0.18
  3583 1336-71-365     71    365.0       1999.    
     MULTIPLE LAYERS AND PROPORTIONS :    2, 0.82       3, 0.18
  3584 1337-42-349     42    349.0       1965.    
     MULTIPLE LAYERS AND PROPORTIONS :    2, 0.78       3, 0.22
  3585 1337-55-353     55    353.0       1947.    
     MULTIPLE LAYERS AND PROPORTIONS :    2, 0.78       3, 0.22
  3586 1337-66-27      66    27.00       1901.    
     MULTIPLE LAYERS AND PROPORTIONS :    2, 0.78       3, 0.22
  3587 1337-71-365     71    365.0       2033.    
     MULTIPLE LAYERS AND PROPORTIONS :    2, 0.78       3, 0.22
  3588 1340-36-38      36    38.00       1989.    
     MULTIPLE LAYERS AND PROPORTIONS :    2, 0.09       3, 0.91
  3589 1340-42-349     42    349.0       1969.    
     MULTIPLE LAYERS AND PROPORTIONS :    2, 0.09       3, 0.91
  3590 1340-48-349     48    349.0       1961.    
     MULTIPLE LAYERS AND PROPORTIONS :    2, 0.09       3, 0.91
  3591 1340-55-353     55    353.0       1948.    
     MULTIPLE LAYERS AND PROPORTIONS :    2, 0.09       3, 0.91
  3592 1340-66-10      66    10.00       1902.    
     MULTIPLE LAYERS AND PROPORTIONS :    2, 0.09       3, 0.91
  3593 1340-71-56      71    56.00       2011.    
     MULTIPLE LAYERS AND PROPORTIONS :    2, 0.09       3, 0.91
  3594 1340-71-365     71    365.0       2033.    
     MULTIPLE LAYERS AND PROPORTIONS :    2, 0.09       3, 0.91
  3595 1264-38-335     38    335.0       2000.    
     MULTIPLE LAYERS AND PROPORTIONS :    2, 0.41       3, 0.59
  3596 1264-42-349     42    349.0       1981.    
     MULTIPLE LAYERS AND PROPORTIONS :    2, 0.41       3, 0.59
  3597 1264-71-70      71    70.00       1982.    
     MULTIPLE LAYERS AND PROPORTIONS :    2, 0.41       3, 0.59
  3598 1264-71-365     71    365.0       2018.    
     MULTIPLE LAYERS AND PROPORTIONS :    2, 0.41       3, 0.59
  3599 1257-66-33      66    33.00       1916.    
  3600 1257-71-56      71    56.00       1959.    
  3601 1257-71-365     71    365.0       1994.    
  3602 1371-56-31      56    31.00       1966.    
  3603 1371-66-56      66    56.00       1937.    
  3604 1371-71-50      71    50.00       1934.    
  3605 1371-71-365     71    365.0       1940.    
  3606 1370-34-198     34    198.0       2015.    
  3607 1370-56-31      56    31.00       1974.    
  3608 1370-66-56      66    56.00       1951.    
  3609 1370-71-50      71    50.00       1943.    
  3610 1370-71-365     71    365.0       1945.    
  3611 1849-12-32      12    32.00       2295.    
     MULTIPLE LAYERS AND PROPORTIONS :    1, 0.73       2, 0.27
  3612 1849-17-34      17    34.00       2282.    
     MULTIPLE LAYERS AND PROPORTIONS :    1, 0.73       2, 0.27
  3613 1849-22-1       22    1.000       2276.    
     MULTIPLE LAYERS AND PROPORTIONS :    1, 0.73       2, 0.27
  3614 1847-48-362     48    362.0       2218.    
  3615 1847-56-34      56    34.00       2197.    
  3616 1847-61-3       61    3.000       2185.    
  3617 1847-66-1       66    1.000       2178.    
  3618 1847-71-56      71    56.00       2177.    
  3619 1847-71-365     71    365.0       2179.    
  3620 1742-1-365       1    365.0       2295.    
 Observation within a steady-state time step has been moved to the end of the time step.
  3621 1741-1-365       1    365.0       2294.    
 Observation within a steady-state time step has been moved to the end of the time step.
  3622 1766-1-365       1    365.0       2333.    
 Observation within a steady-state time step has been moved to the end of the time step.
  3623 1848-56-34      56    34.00       2194.    
  3624 1848-65-336     65    336.0       2176.    
  3625 1848-71-365     71    365.0       2172.    
  3626 1901-2-36        2    36.00       2292.    
  3627 1912-1-365       1    365.0       2284.    
 Observation within a steady-state time step has been moved to the end of the time step.
  3628 1929-1-365       1    365.0       2283.    
 Observation within a steady-state time step has been moved to the end of the time step.
  3629 1902-1-365       1    365.0       2282.    
 Observation within a steady-state time step has been moved to the end of the time step.
  3630 1872-71-68      71    68.00       2168.    
  3631 1872-71-365     71    365.0       2169.    
  3632 1871-56-34      56    34.00       2185.    
  3633 1832-17-37      17    37.00       2250.    
  3634 1832-22-1       22    1.000       2238.    
  3635 1832-32-49      32    49.00       2224.    
  3636 1832-42-362     42    362.0       2198.    
  3637 1832-48-362     48    362.0       2207.    
  3638 1832-56-34      56    34.00       2189.    
  3639 1832-61-3       61    3.000       2179.    
  3640 1832-71-21      71    21.00       2168.    
  3641 1832-71-365     71    365.0       2168.    
  3642 1767-27-40      27    40.00       2263.    
     MULTIPLE LAYERS AND PROPORTIONS :    2, 0.62       3, 0.38
  3643 1767-42-363     42    363.0       2207.    
     MULTIPLE LAYERS AND PROPORTIONS :    2, 0.62       3, 0.38
  3644 1767-56-34      56    34.00       2199.    
     MULTIPLE LAYERS AND PROPORTIONS :    2, 0.62       3, 0.38
  3645 1818-65-336     65    336.0       2171.    
  3646 1804-71-76      71    76.00       2169.    
  3647 1804-71-365     71    365.0       2168.    
  3648 1793-42-362     42    362.0       2203.    
     MULTIPLE LAYERS AND PROPORTIONS :    1, 0.16       2, 0.84
  3649 1793-48-334     48    334.0       2211.    
     MULTIPLE LAYERS AND PROPORTIONS :    1, 0.16       2, 0.84
  3650 1793-56-34      56    34.00       2196.    
     MULTIPLE LAYERS AND PROPORTIONS :    1, 0.16       2, 0.84
  3651 1793-65-336     65    336.0       2179.    
     MULTIPLE LAYERS AND PROPORTIONS :    1, 0.16       2, 0.84
  3652 1793-71-21      71    21.00       2174.    
     MULTIPLE LAYERS AND PROPORTIONS :    1, 0.16       2, 0.84
  3653 1793-71-365     71    365.0       2173.    
     MULTIPLE LAYERS AND PROPORTIONS :    1, 0.16       2, 0.84
  3654 1891-1-365       1    365.0       2278.    
 Observation within a steady-state time step has been moved to the end of the time step.
  3655 1891-11-38      11    38.00       2260.    
  3656 1891-17-37      17    37.00       2237.    
  3657 1690-32-32      32    32.00       2242.    
  3658 1690-34-32      34    32.00       2237.    
  3659 1690-42-362     42    362.0       2216.    
  3660 1690-48-362     48    362.0       2222.    
  3661 1690-56-34      56    34.00       2207.    
  3662 1690-61-3       61    3.000       2187.    
  3663 1690-71-21      71    21.00       2185.    
  3664 1690-71-365     71    365.0       2186.    
  3665 1697-56-34      56    34.00       2201.    
  3666 1697-65-336     65    336.0       2184.    
  3667 1697-71-21      71    21.00       2181.    
  3668 1697-71-365     71    365.0       2181.    
  3669 1638-22-30      22    30.00       2262.    
  3670 1638-27-48      27    48.00       2252.    
  3671 1638-32-49      32    49.00       2248.    
  3672 1638-37-49      37    49.00       2231.    
  3673 1638-42-363     42    363.0       2220.    
  3674 1642-1-365       1    365.0       2316.    
 Observation within a steady-state time step has been moved to the end of the time step.
  3675 1642-8-48        8    48.00       2310.    
  3676 1626-1-365       1    365.0       2317.    
 Observation within a steady-state time step has been moved to the end of the time step.
  3677 1625-26-349     26    349.0       2281.    
     MULTIPLE LAYERS AND PROPORTIONS :    1, 0.28       2, 0.72
  3678 1625-32-49      32    49.00       2274.    
     MULTIPLE LAYERS AND PROPORTIONS :    1, 0.28       2, 0.72
  3679 1625-42-362     42    362.0       2244.    
     MULTIPLE LAYERS AND PROPORTIONS :    1, 0.28       2, 0.72
  3680 1625-48-362     48    362.0       2241.    
     MULTIPLE LAYERS AND PROPORTIONS :    1, 0.28       2, 0.72
  3681 1625-56-34      56    34.00       2226.    
     MULTIPLE LAYERS AND PROPORTIONS :    1, 0.28       2, 0.72
  3682 1625-61-3       61    3.000       2218.    
     MULTIPLE LAYERS AND PROPORTIONS :    1, 0.28       2, 0.72
  3683 1508-12-54      12    54.00       2335.    
     MULTIPLE LAYERS AND PROPORTIONS :    1, 0.89       2, 0.11
  3684 1508-17-33      17    33.00       2334.    
     MULTIPLE LAYERS AND PROPORTIONS :    1, 0.89       2, 0.11
  3685 1508-22-26      22    26.00       2330.    
     MULTIPLE LAYERS AND PROPORTIONS :    1, 0.89       2, 0.11
  3686 1508-27-15      27    15.00       2332.    
     MULTIPLE LAYERS AND PROPORTIONS :    1, 0.89       2, 0.11
  3687 1508-32-49      32    49.00       2321.    
     MULTIPLE LAYERS AND PROPORTIONS :    1, 0.89       2, 0.11
  3688 1508-43-5       43    5.000       2280.    
     MULTIPLE LAYERS AND PROPORTIONS :    1, 0.89       2, 0.11
  3689 1508-48-364     48    364.0       2290.    
     MULTIPLE LAYERS AND PROPORTIONS :    1, 0.89       2, 0.11
  3690 1508-56-34      56    34.00       2275.    
     MULTIPLE LAYERS AND PROPORTIONS :    1, 0.89       2, 0.11
  3691 1508-61-3       61    3.000       2245.    
     MULTIPLE LAYERS AND PROPORTIONS :    1, 0.89       2, 0.11
  3692 1508-71-49      71    49.00       2245.    
     MULTIPLE LAYERS AND PROPORTIONS :    1, 0.89       2, 0.11
  3693 1508-71-365     71    365.0       2249.    
     MULTIPLE LAYERS AND PROPORTIONS :    1, 0.89       2, 0.11
  3694 1479-43-5       43    5.000       2283.    
     MULTIPLE LAYERS AND PROPORTIONS :    1, 0.65       2, 0.35
  3695 1479-48-364     48    364.0       2295.    
     MULTIPLE LAYERS AND PROPORTIONS :    1, 0.65       2, 0.35
  3696 1479-56-34      56    34.00       2280.    
     MULTIPLE LAYERS AND PROPORTIONS :    1, 0.65       2, 0.35
  3697 1479-60-363     60    363.0       2247.    
     MULTIPLE LAYERS AND PROPORTIONS :    1, 0.65       2, 0.35
  3698 1479-71-70      71    70.00       2249.    
     MULTIPLE LAYERS AND PROPORTIONS :    1, 0.65       2, 0.35
  3699 1479-71-365     71    365.0       2251.    
     MULTIPLE LAYERS AND PROPORTIONS :    1, 0.65       2, 0.35
  3700 1462-42-364     42    364.0       2289.    
  3701 1462-48-334     48    334.0       2293.    
  3702 1462-56-16      56    16.00       2279.    
  3703 1468-1-365       1    365.0       2357.    
 Observation within a steady-state time step has been moved to the end of the time step.
  3704 1471-11-278     11    278.0       2346.    
     MULTIPLE LAYERS AND PROPORTIONS :    1, 0.57       2, 0.43
  3705 1471-17-33      17    33.00       2344.    
     MULTIPLE LAYERS AND PROPORTIONS :    1, 0.57       2, 0.43
  3706 1471-22-26      22    26.00       2339.    
     MULTIPLE LAYERS AND PROPORTIONS :    1, 0.57       2, 0.43
  3707 1471-26-349     26    349.0       2333.    
     MULTIPLE LAYERS AND PROPORTIONS :    1, 0.57       2, 0.43
  3708 1471-43-5       43    5.000       2284.    
     MULTIPLE LAYERS AND PROPORTIONS :    1, 0.57       2, 0.43
  3709 1471-48-364     48    364.0       2296.    
  3710 1471-65-336     65    336.0       2241.    
     MULTIPLE LAYERS AND PROPORTIONS :    1, 0.57       2, 0.43
  3711 1471-71-70      71    70.00       2248.    
     MULTIPLE LAYERS AND PROPORTIONS :    1, 0.57       2, 0.43
  3712 1471-71-365     71    365.0       2250.    
     MULTIPLE LAYERS AND PROPORTIONS :    1, 0.57       2, 0.43
  3713 1461-12-54      12    54.00       2348.    
     MULTIPLE LAYERS AND PROPORTIONS :    2, 0.50       3, 0.50
  3714 1461-17-44      17    44.00       2340.    
     MULTIPLE LAYERS AND PROPORTIONS :    2, 0.50       3, 0.50
  3715 1461-22-30      22    30.00       2330.    
     MULTIPLE LAYERS AND PROPORTIONS :    2, 0.50       3, 0.50
  3716 1461-27-59      27    59.00       2319.    
     MULTIPLE LAYERS AND PROPORTIONS :    2, 0.50       3, 0.50
  3717 1461-42-363     42    363.0       2295.    
     MULTIPLE LAYERS AND PROPORTIONS :    2, 0.50       3, 0.50
  3718 1461-48-336     48    336.0       2311.    
     MULTIPLE LAYERS AND PROPORTIONS :    2, 0.50       3, 0.50
  3719 1461-56-34      56    34.00       2299.    
     MULTIPLE LAYERS AND PROPORTIONS :    2, 0.50       3, 0.50
  3720 1461-60-363     60    363.0       2271.    
     MULTIPLE LAYERS AND PROPORTIONS :    2, 0.50       3, 0.50
  3721 1461-66-59      66    59.00       2274.    
     MULTIPLE LAYERS AND PROPORTIONS :    2, 0.50       3, 0.50
  3722 1461-71-70      71    70.00       2283.    
     MULTIPLE LAYERS AND PROPORTIONS :    2, 0.50       3, 0.50
  3723 1461-71-365     71    365.0       2287.    
     MULTIPLE LAYERS AND PROPORTIONS :    2, 0.50       3, 0.50
  3724 1387-42-362     42    362.0       2292.    
     MULTIPLE LAYERS AND PROPORTIONS :    2, 0.46       3, 0.54
  3725 1387-49-2       49    2.000       2310.    
     MULTIPLE LAYERS AND PROPORTIONS :    2, 0.46       3, 0.54
  3726 1387-56-33      56    33.00       2280.    
     MULTIPLE LAYERS AND PROPORTIONS :    2, 0.46       3, 0.54
  3727 1387-60-363     60    363.0       2244.    
     MULTIPLE LAYERS AND PROPORTIONS :    2, 0.46       3, 0.54
  3728 1387-66-59      66    59.00       2240.    
     MULTIPLE LAYERS AND PROPORTIONS :    2, 0.46       3, 0.54
  3729 1387-71-70      71    70.00       2252.    
     MULTIPLE LAYERS AND PROPORTIONS :    2, 0.46       3, 0.54
  3730 1387-71-365     71    365.0       2256.    
     MULTIPLE LAYERS AND PROPORTIONS :    2, 0.46       3, 0.54
  3731 1391-17-41      17    41.00       2368.    
     MULTIPLE LAYERS AND PROPORTIONS :    1, 0.42       2, 0.45       3, 0.13
  3732 1391-22-31      22    31.00       2358.    
     MULTIPLE LAYERS AND PROPORTIONS :    1, 0.42       2, 0.45       3, 0.13
  3733 1391-42-362     42    362.0       2310.    
     MULTIPLE LAYERS AND PROPORTIONS :    2, 0.87       3, 0.13
  3734 1391-48-338     48    338.0       2314.    
     MULTIPLE LAYERS AND PROPORTIONS :    2, 0.87       3, 0.13
  3735 1391-56-16      56    16.00       2281.    
     MULTIPLE LAYERS AND PROPORTIONS :    2, 0.87       3, 0.13
  3736 1391-61-59      61    59.00       2260.    
     MULTIPLE LAYERS AND PROPORTIONS :    2, 0.87       3, 0.13
  3737 1391-66-27      66    27.00       2277.    
     MULTIPLE LAYERS AND PROPORTIONS :    2, 0.87       3, 0.13
  3738 1391-71-56      71    56.00       2263.    
     MULTIPLE LAYERS AND PROPORTIONS :    2, 0.87       3, 0.13
  3739 1386-17-41      17    41.00       2369.    
     MULTIPLE LAYERS AND PROPORTIONS :    1, 0.37       2, 0.49       3, 0.14
  3740 1386-22-31      22    31.00       2358.    
     MULTIPLE LAYERS AND PROPORTIONS :    1, 0.37       2, 0.49       3, 0.14
  3741 1386-42-362     42    362.0       2292.    
     MULTIPLE LAYERS AND PROPORTIONS :    2, 0.86       3, 0.14
  3742 1386-48-337     48    337.0       2298.    
     MULTIPLE LAYERS AND PROPORTIONS :    2, 0.86       3, 0.14
  3743 1386-56-16      56    16.00       2296.    
     MULTIPLE LAYERS AND PROPORTIONS :    2, 0.86       3, 0.14
  3744 1398-48-335     48    335.0       2302.    
     MULTIPLE LAYERS AND PROPORTIONS :    2, 0.45       3, 0.55
  3745 1401-2-1         2    1.000       2373.    
  3746 1401-12-53      12    53.00       2358.    
  3747 1401-17-60      17    60.00       2362.    
  3748 1401-22-26      22    26.00       2353.    
  3749 1427-17-39      17    39.00       2358.    
  3750 1427-22-31      22    31.00       2350.    
  3751 1427-42-362     42    362.0       2293.    
  3752 1427-48-364     48    364.0       2305.    
  3753 1427-56-33      56    33.00       2285.    
  3754 1378-42-364     42    364.0       2285.    
  3755 1400-1-32        1    32.00       2376.    
 Observation within a steady-state time step has been moved to the end of the time step.
  3756 1400-12-53      12    53.00       2361.    
  3757 1400-17-60      17    60.00       2364.    
  3758 1400-22-26      22    26.00       2355.    
  3759 1400-27-48      27    48.00       2349.    
  3760 1400-36-3       36    3.000       2310.    
  3761 1400-43-5       43    5.000       2292.    
  3762 1400-48-364     48    364.0       2307.    
  3763 1400-56-33      56    33.00       2284.    
  3764 1400-60-363     60    363.0       2248.    
  3765 1400-71-365     71    365.0       2259.    
  3766 1405-7-308       7    308.0       2360.    
  3767 1405-10-34      10    34.00       2359.    
  3768 1405-43-5       43    5.000       2287.    
  3769 1405-48-364     48    364.0       2301.    
  3770 1405-56-33      56    33.00       2278.    
  3771 1405-66-13      66    13.00       2235.    
  3772 1405-71-365     71    365.0       2252.    
  3773 1349-17-41      17    41.00       2357.    
     MULTIPLE LAYERS AND PROPORTIONS :    1, 0.15       2, 0.85
  3774 1349-22-30      22    30.00       2345.    
     MULTIPLE LAYERS AND PROPORTIONS :    1, 0.15       2, 0.85
  3775 1329-1-274       1    274.0       2381.    
 Observation within a steady-state time step has been moved to the end of the time step.
  3776 1329-17-41      17    41.00       2368.    
  3777 1329-22-31      22    31.00       2357.    
  3778 1329-42-364     42    364.0       2285.    
  3779 1329-56-16      56    16.00       2275.    
  3780 1329-66-26      66    26.00       2245.    
  3781 1282-1-277       1    277.0       2407.    
 Observation within a steady-state time step has been moved to the end of the time step.
  3782 1283-1-309       1    309.0       2387.    
 Observation within a steady-state time step has been moved to the end of the time step.
  3783 1283-6-340       6    340.0       2379.    
  3784 1283-11-350     11    350.0       2372.    
  3785 1283-16-301     16    301.0       2369.    
  3786 1283-22-30      22    30.00       2361.    
  3787 1283-27-10      27    10.00       2352.    
  3788 1283-35-345     35    345.0       2312.    
  3789 1274-6-288       6    288.0       2376.    
  3790 1274-12-54      12    54.00       2369.    
  3791 1274-17-41      17    41.00       2373.    
  3792 1274-22-30      22    30.00       2360.    
  3793 1356-43-1       43    1.000       2285.    
     MULTIPLE LAYERS AND PROPORTIONS :    2, 0.71       3, 0.29
  3794 1347-66-49      66    49.00       2241.    
  3795 1345-55-350     55    350.0       2281.    
     MULTIPLE LAYERS AND PROPORTIONS :    2, 0.74       3, 0.26
  3796 1345-61-33      61    33.00       2244.    
     MULTIPLE LAYERS AND PROPORTIONS :    2, 0.74       3, 0.26
  3797 1345-66-49      66    49.00       2241.    
     MULTIPLE LAYERS AND PROPORTIONS :    2, 0.74       3, 0.26
  3798 1345-71-68      71    68.00       2252.    
     MULTIPLE LAYERS AND PROPORTIONS :    2, 0.74       3, 0.26
  3799 1345-71-365     71    365.0       2257.    
  3800 1321-12-57      12    57.00       2369.    
  3801 1321-17-41      17    41.00       2374.    
  3802 1321-22-27      22    27.00       2361.    
  3803 1321-27-51      27    51.00       2354.    
  3804 1360-56-34      56    34.00       2271.    
     MULTIPLE LAYERS AND PROPORTIONS :    2, 0.64       3, 0.36
  3805 1360-60-362     60    362.0       2240.    
     MULTIPLE LAYERS AND PROPORTIONS :    2, 0.64       3, 0.36
  3806 1360-65-348     65    348.0       2229.    
     MULTIPLE LAYERS AND PROPORTIONS :    2, 0.64       3, 0.36
  3807 1360-71-48      71    48.00       2243.    
     MULTIPLE LAYERS AND PROPORTIONS :    2, 0.64       3, 0.36
  3808 1360-71-365     71    365.0       2248.    
     MULTIPLE LAYERS AND PROPORTIONS :    2, 0.64       3, 0.36
  3809 1328-1-277       1    277.0       2386.    
 Observation within a steady-state time step has been moved to the end of the time step.
  3810 1328-6-295       6    295.0       2377.    
  3811 1306-11-41      11    41.00       2364.    
     MULTIPLE LAYERS AND PROPORTIONS :    1, 0.31       2, 0.69
  3812 1306-17-41      17    41.00       2368.    
     MULTIPLE LAYERS AND PROPORTIONS :    1, 0.31       2, 0.69
  3813 1306-22-27      22    27.00       2356.    
     MULTIPLE LAYERS AND PROPORTIONS :    1, 0.31       2, 0.69
  3814 1306-43-5       43    5.000       2286.    
  3815 1306-48-364     48    364.0       2304.    
  3816 1306-56-33      56    33.00       2272.    
  3817 1306-60-363     60    363.0       2238.    
  3818 1306-66-6       66    6.000       2234.    
     MULTIPLE LAYERS AND PROPORTIONS :    1, 0.31       2, 0.69
  3819 1306-71-60      71    60.00       2246.    
     MULTIPLE LAYERS AND PROPORTIONS :    1, 0.31       2, 0.69
  3820 1306-71-365     71    365.0       2252.    
     MULTIPLE LAYERS AND PROPORTIONS :    1, 0.31       2, 0.69
  3821 1307-1-274       1    274.0       2386.    
 Observation within a steady-state time step has been moved to the end of the time step.
  3822 1307-11-41      11    41.00       2369.    
  3823 1307-17-41      17    41.00       2375.    
  3824 1307-22-27      22    27.00       2362.    
  3825 1307-26-349     26    349.0       2350.    
  3826 1307-48-364     48    364.0       2309.    
  3827 1307-56-33      56    33.00       2279.    
  3828 1307-71-60      71    60.00       2253.    
  3829 1307-71-365     71    365.0       2258.    
  3830 1304-1-274       1    274.0       2381.    
 Observation within a steady-state time step has been moved to the end of the time step.
  3831 1304-11-41      11    41.00       2365.    
  3832 1304-17-32      17    32.00       2370.    
  3833 1304-22-27      22    27.00       2354.    
  3834 1304-26-302     26    302.0       2340.    
  3835 1304-48-364     48    364.0       2301.    
  3836 1304-56-33      56    33.00       2270.    
  3837 1304-60-356     60    356.0       2235.    
  3838 1304-71-60      71    60.00       2244.    
  3839 1281-12-54      12    54.00       2373.    
  3840 1281-17-41      17    41.00       2377.    
  3841 1281-22-30      22    30.00       2365.    
  3842 1281-32-50      32    50.00       2343.    
  3843 1281-37-49      37    49.00       2314.    
  3844 1292-1-274       1    274.0       2389.    
 Observation within a steady-state time step has been moved to the end of the time step.
  3845 1292-17-46      17    46.00       2376.    
  3846 1292-22-27      22    27.00       2363.    
  3847 1292-26-349     26    349.0       2351.    
  3848 1292-43-5       43    5.000       2291.    
  3849 1292-48-364     48    364.0       2311.    
  3850 1272-1-60        1    60.00       2392.    
 Observation within a steady-state time step has been moved to the end of the time step.
  3851 1272-7-176       7    176.0       2374.    
  3852 1272-60-363     60    363.0       2245.    
  3853 1272-65-348     65    348.0       2241.    
  3854 1272-71-365     71    365.0       2258.    
  3855 1298-42-362     42    362.0       2292.    
     MULTIPLE LAYERS AND PROPORTIONS :    2, 0.43       3, 0.57
  3856 1298-56-10      56    10.00       2279.    
     MULTIPLE LAYERS AND PROPORTIONS :    2, 0.43       3, 0.57
  3857 1298-60-363     60    363.0       2244.    
     MULTIPLE LAYERS AND PROPORTIONS :    2, 0.43       3, 0.57
  3858 1298-66-13      66    13.00       2240.    
     MULTIPLE LAYERS AND PROPORTIONS :    2, 0.43       3, 0.57
  3859 1298-71-365     71    365.0       2257.    
     MULTIPLE LAYERS AND PROPORTIONS :    2, 0.43       3, 0.57
  3860 1299-56-10      56    10.00       2280.    
  3861 1299-66-13      66    13.00       2240.    
  3862 1299-71-365     71    365.0       2255.    
  3863 1294-43-5       43    5.000       2283.    
  3864 1294-48-364     48    364.0       2302.    
  3865 1294-56-10      56    10.00       2272.    
  3866 1294-60-363     60    363.0       2237.    
  3867 1294-66-13      66    13.00       2233.    
     MULTIPLE LAYERS AND PROPORTIONS :    1, 0.30       2, 0.70
  3868 1294-71-365     71    365.0       2251.    
     MULTIPLE LAYERS AND PROPORTIONS :    1, 0.30       2, 0.70
  3869 1296-71-60      71    60.00       2249.    
     MULTIPLE LAYERS AND PROPORTIONS :    2, 0.15       3, 0.85
  3870 1288-56-10      56    10.00       2281.    
  3871 1288-66-13      66    13.00       2242.    
  3872 1288-71-41      71    41.00       2251.    
  3873 1288-71-365     71    365.0       2257.    
  3874 1285-60-361     60    361.0       2244.    
     MULTIPLE LAYERS AND PROPORTIONS :    2, 0.38       3, 0.62
  3875 1285-71-365     71    365.0       2257.    
     MULTIPLE LAYERS AND PROPORTIONS :    2, 0.38       3, 0.62
  3876 1291-60-361     60    361.0       2243.    
     MULTIPLE LAYERS AND PROPORTIONS :    2, 0.39       3, 0.61
  3877 1291-71-365     71    365.0       2257.    
     MULTIPLE LAYERS AND PROPORTIONS :    2, 0.39       3, 0.61
  3878 1287-60-361     60    361.0       2245.    
     MULTIPLE LAYERS AND PROPORTIONS :    2, 0.39       3, 0.61
  3879 1287-71-365     71    365.0       2258.    
     MULTIPLE LAYERS AND PROPORTIONS :    2, 0.39       3, 0.61
  3880 1342-71-62      71    62.00       2342.    
     MULTIPLE LAYERS AND PROPORTIONS :    1, 0.62       2, 0.38
  3881 1342-71-365     71    365.0       2341.    
     MULTIPLE LAYERS AND PROPORTIONS :    1, 0.62       2, 0.38
  3882 1346-11-40      11    40.00       2376.    
  3883 1346-17-44      17    44.00       2376.    
  3884 1346-22-27      22    27.00       2364.    
  3885 1346-27-59      27    59.00       2357.    
  3886 1346-32-50      32    50.00       2357.    
  3887 1346-42-362     42    362.0       2298.    
  3888 1346-48-357     48    357.0       2313.    
  3889 1346-56-32      56    32.00       2285.    
  3890 1346-60-363     60    363.0       2302.    
  3891 1346-71-62      71    62.00       2262.    
  3892 1346-71-365     71    365.0       2268.    
  3893 1351-71-62      71    62.00       2310.    
  3894 1351-71-365     71    365.0       2310.    
  3895 1305-12-57      12    57.00       2382.    
  3896 1305-17-46      17    46.00       2384.    
  3897 1305-22-27      22    27.00       2366.    
  3898 1305-42-362     42    362.0       2294.    
  3899 1305-48-357     48    357.0       2312.    
  3900 1305-55-357     55    357.0       2285.    
  3901 1305-60-342     60    342.0       2251.    
  3902 1305-66-59      66    59.00       2248.    
  3903 1305-71-20      71    20.00       2255.    
  3904 1305-71-365     71    365.0       2261.    
  3905 1286-1-91        1    91.00       2419.    
 Observation within a steady-state time step has been moved to the end of the time step.
  3906 1284-60-361     60    361.0       2246.    
     MULTIPLE LAYERS AND PROPORTIONS :    2, 0.53       3, 0.47
  3907 1284-65-356     65    356.0       2240.    
     MULTIPLE LAYERS AND PROPORTIONS :    2, 0.53       3, 0.47
  3908 1284-71-365     71    365.0       2258.    
     MULTIPLE LAYERS AND PROPORTIONS :    2, 0.53       3, 0.47
  3909 1271-42-362     42    362.0       2294.    
     MULTIPLE LAYERS AND PROPORTIONS :    2, 0.43       3, 0.57
  3910 1271-56-10      56    10.00       2284.    
     MULTIPLE LAYERS AND PROPORTIONS :    2, 0.43       3, 0.57
  3911 1271-60-363     60    363.0       2250.    
     MULTIPLE LAYERS AND PROPORTIONS :    2, 0.43       3, 0.57
  3912 1271-66-13      66    13.00       2244.    
     MULTIPLE LAYERS AND PROPORTIONS :    1, 0.22       2, 0.21       3, 0.57
  3913 1271-71-62      71    62.00       2255.    
     MULTIPLE LAYERS AND PROPORTIONS :    1, 0.22       2, 0.21       3, 0.57
  3914 1271-71-365     71    365.0       2259.    
     MULTIPLE LAYERS AND PROPORTIONS :    1, 0.22       2, 0.21       3, 0.57
  3915 1293-56-10      56    10.00       2282.    
  3916 1293-66-13      66    13.00       2243.    
  3917 1293-71-47      71    47.00       2251.    
  3918 1293-71-365     71    365.0       2257.    
  3919 1898-10-252     10    252.0       2397.    
  3920 1873-10-252     10    252.0       2394.    
  3921 1763-10-252     10    252.0       2409.    
  3922 1762-7-161       7    161.0       2417.    
     MULTIPLE LAYERS AND PROPORTIONS :    1, 0.89       2, 0.11
  3923 1762-22-60      22    60.00       2383.    
     MULTIPLE LAYERS AND PROPORTIONS :    1, 0.89       2, 0.11
  3924 1776-42-355     42    355.0       2284.    
     MULTIPLE LAYERS AND PROPORTIONS :    1, 0.57       2, 0.43
  3925 1776-56-27      56    27.00       2238.    
     MULTIPLE LAYERS AND PROPORTIONS :    1, 0.57       2, 0.43
  3926 1776-66-54      66    54.00       2214.    
     MULTIPLE LAYERS AND PROPORTIONS :    1, 0.57       2, 0.43
  3927 1776-71-64      71    64.00       2224.    
     MULTIPLE LAYERS AND PROPORTIONS :    1, 0.57       2, 0.43
  3928 1776-71-365     71    365.0       2228.    
     MULTIPLE LAYERS AND PROPORTIONS :    1, 0.57       2, 0.43
  3929 1775-42-355     42    355.0       2284.    
  3930 1775-56-27      56    27.00       2239.    
  3931 1775-66-54      66    54.00       2213.    
  3932 1775-71-64      71    64.00       2224.    
  3933 1775-71-365     71    365.0       2228.    
  3934 1905-10-252     10    252.0       2395.    
  3935 1875-10-252     10    252.0       2391.    
  3936 1877-22-79      22    79.00       2360.    
  3937 1877-42-356     42    356.0       2273.    
  3938 1877-48-355     48    355.0       2238.    
  3939 1877-66-59      66    59.00       2185.    
  3940 1877-71-64      71    64.00       2205.    
  3941 1877-71-365     71    365.0       2210.    
  3942 1878-42-356     42    356.0       2273.    
  3943 1878-48-356     48    356.0       2239.    
  3944 1878-56-10      56    10.00       2207.    
  3945 1878-61-26      61    26.00       2176.    
  3946 1878-66-59      66    59.00       2186.    
  3947 1878-71-64      71    64.00       2207.    
  3948 1878-71-365     71    365.0       2211.    
  3949 1926-42-363     42    363.0       2274.    
  3950 1886-22-79      22    79.00       2353.    
  3951 1886-26-349     26    349.0       2341.    
  3952 1886-42-362     42    362.0       2271.    
  3953 1886-48-357     48    357.0       2237.    
  3954 1886-56-24      56    24.00       2201.    
  3955 1886-66-1       66    1.000       2173.    
  3956 1886-71-62      71    62.00       2198.    
  3957 1886-71-365     71    365.0       2203.    
  3958 1852-10-255     10    255.0       2390.    
  3959 1822-10-255     10    255.0       2384.    
  3960 1786-66-19      66    19.00       2167.    
  3961 1786-71-33      71    33.00       2188.    
  3962 1786-71-365     71    365.0       2192.    
  3963 1851-10-252     10    252.0       2391.    
  3964 1791-12-116     12    116.0       2390.    
     MULTIPLE LAYERS AND PROPORTIONS :    1, 0.28       2, 0.72
  3965 1791-22-79      22    79.00       2356.    
     MULTIPLE LAYERS AND PROPORTIONS :    1, 0.28       2, 0.72
  3966 1791-26-294     26    294.0       2344.    
     MULTIPLE LAYERS AND PROPORTIONS :    1, 0.28       2, 0.72
  3967 1791-42-356     42    356.0       2270.    
     MULTIPLE LAYERS AND PROPORTIONS :    1, 0.28       2, 0.72
  3968 1791-48-356     48    356.0       2235.    
     MULTIPLE LAYERS AND PROPORTIONS :    1, 0.28       2, 0.72
  3969 1791-66-56      66    56.00       2187.    
     MULTIPLE LAYERS AND PROPORTIONS :    1, 0.28       2, 0.72
  3970 1791-71-33      71    33.00       2203.    
     MULTIPLE LAYERS AND PROPORTIONS :    1, 0.28       2, 0.72
  3971 1791-71-365     71    365.0       2208.    
     MULTIPLE LAYERS AND PROPORTIONS :    1, 0.28       2, 0.72
  3972 1785-42-356     42    356.0       2271.    
     MULTIPLE LAYERS AND PROPORTIONS :    1, 0.24       2, 0.76
  3973 1785-48-356     48    356.0       2235.    
     MULTIPLE LAYERS AND PROPORTIONS :    1, 0.24       2, 0.76
  3974 1785-56-10      56    10.00       2212.    
     MULTIPLE LAYERS AND PROPORTIONS :    1, 0.24       2, 0.76
  3975 1785-61-26      61    26.00       2173.    
     MULTIPLE LAYERS AND PROPORTIONS :    1, 0.24       2, 0.76
  3976 1785-66-56      66    56.00       2186.    
     MULTIPLE LAYERS AND PROPORTIONS :    1, 0.24       2, 0.76
  3977 1785-71-33      71    33.00       2203.    
     MULTIPLE LAYERS AND PROPORTIONS :    1, 0.24       2, 0.76
  3978 1785-71-365     71    365.0       2208.    
     MULTIPLE LAYERS AND PROPORTIONS :    1, 0.24       2, 0.76
  3979 1928-10-256     10    256.0       2381.    
  3980 1879-12-111     12    111.0       2376.    
     MULTIPLE LAYERS AND PROPORTIONS :    1, 0.20       2, 0.80
  3981 1879-22-79      22    79.00       2350.    
     MULTIPLE LAYERS AND PROPORTIONS :    1, 0.20       2, 0.80
  3982 1879-42-362     42    362.0       2268.    
     MULTIPLE LAYERS AND PROPORTIONS :    1, 0.20       2, 0.80
  3983 1879-48-357     48    357.0       2235.    
     MULTIPLE LAYERS AND PROPORTIONS :    1, 0.20       2, 0.80
  3984 1879-55-353     55    353.0       2199.    
     MULTIPLE LAYERS AND PROPORTIONS :    1, 0.20       2, 0.80
  3985 1879-60-313     60    313.0       2201.    
     MULTIPLE LAYERS AND PROPORTIONS :    1, 0.20       2, 0.80
  3986 1879-71-49      71    49.00       2192.    
     MULTIPLE LAYERS AND PROPORTIONS :    1, 0.20       2, 0.80
  3987 1879-71-365     71    365.0       2198.    
     MULTIPLE LAYERS AND PROPORTIONS :    1, 0.20       2, 0.80
  3988 1824-10-256     10    256.0       2376.    
  3989 1811-7-156       7    156.0       2379.    
     MULTIPLE LAYERS AND PROPORTIONS :    1, 0.33       2, 0.67
  3990 1811-22-79      22    79.00       2341.    
     MULTIPLE LAYERS AND PROPORTIONS :    1, 0.33       2, 0.67
  3991 1811-32-32      32    32.00       2314.    
     MULTIPLE LAYERS AND PROPORTIONS :    1, 0.33       2, 0.67
  3992 1811-48-357     48    357.0       2232.    
     MULTIPLE LAYERS AND PROPORTIONS :    1, 0.33       2, 0.67
  3993 1811-55-354     55    354.0       2190.    
     MULTIPLE LAYERS AND PROPORTIONS :    1, 0.33       2, 0.67
  3994 1811-60-349     60    349.0       2149.    
     MULTIPLE LAYERS AND PROPORTIONS :    1, 0.33       2, 0.67
  3995 1811-65-355     65    355.0       2161.    
     MULTIPLE LAYERS AND PROPORTIONS :    1, 0.33       2, 0.67
  3996 1811-71-68      71    68.00       2187.    
     MULTIPLE LAYERS AND PROPORTIONS :    1, 0.33       2, 0.67
  3997 1811-71-365     71    365.0       2193.    
     MULTIPLE LAYERS AND PROPORTIONS :    1, 0.33       2, 0.67
  3998 1777-10-256     10    256.0       2378.    
  3999 1823-42-362     42    362.0       2268.    
     MULTIPLE LAYERS AND PROPORTIONS :    1, 0.44       2, 0.56
  4000 1823-48-357     48    357.0       2235.    
     MULTIPLE LAYERS AND PROPORTIONS :    1, 0.44       2, 0.56
  4001 1823-56-32      56    32.00       2194.    
     MULTIPLE LAYERS AND PROPORTIONS :    1, 0.45       2, 0.55
  4002 1823-60-313     60    313.0       2165.    
     MULTIPLE LAYERS AND PROPORTIONS :    1, 0.45       2, 0.55
  4003 1823-66-19      66    19.00       2171.    
     MULTIPLE LAYERS AND PROPORTIONS :    1, 0.45       2, 0.55
  4004 1823-71-49      71    49.00       2194.    
     MULTIPLE LAYERS AND PROPORTIONS :    1, 0.45       2, 0.55
  4005 1823-71-365     71    365.0       2200.    
     MULTIPLE LAYERS AND PROPORTIONS :    1, 0.45       2, 0.55
  4006 1744-10-256     10    256.0       2381.    
  4007 1907-12-116     12    116.0       2361.    
  4008 1907-22-79      22    79.00       2337.    
  4009 1907-42-362     42    362.0       2259.    
  4010 1907-48-357     48    357.0       2229.    
  4011 1907-71-365     71    365.0       2189.    
  4012 1906-42-362     42    362.0       2259.    
     MULTIPLE LAYERS AND PROPORTIONS :    1, 0.34       2, 0.66
  4013 1906-48-357     48    357.0       2230.    
     MULTIPLE LAYERS AND PROPORTIONS :    1, 0.34       2, 0.66
  4014 1906-55-356     55    356.0       2188.    
     MULTIPLE LAYERS AND PROPORTIONS :    1, 0.34       2, 0.66
  4015 1906-60-341     60    341.0       2164.    
     MULTIPLE LAYERS AND PROPORTIONS :    1, 0.34       2, 0.66
  4016 1906-65-355     65    355.0       2153.    
     MULTIPLE LAYERS AND PROPORTIONS :    1, 0.34       2, 0.66
  4017 1906-71-32      71    32.00       2182.    
     MULTIPLE LAYERS AND PROPORTIONS :    1, 0.34       2, 0.66
  4018 1906-71-365     71    365.0       2189.    
     MULTIPLE LAYERS AND PROPORTIONS :    1, 0.34       2, 0.66
  4019 1899-66-19      66    19.00       2159.    
  4020 1899-71-32      71    32.00       2181.    
  4021 1899-71-365     71    365.0       2188.    
  4022 1778-12-261     12    261.0       2348.    
  4023 1764-10-257     10    257.0       2360.    
  4024 1765-42-362     42    362.0       2257.    
     MULTIPLE LAYERS AND PROPORTIONS :    1, 0.15       2, 0.85
  4025 1765-48-357     48    357.0       2229.    
     MULTIPLE LAYERS AND PROPORTIONS :    1, 0.15       2, 0.85
  4026 1765-55-354     55    354.0       2179.    
     MULTIPLE LAYERS AND PROPORTIONS :    1, 0.15       2, 0.85
  4027 1765-60-349     60    349.0       2153.    
     MULTIPLE LAYERS AND PROPORTIONS :    1, 0.15       2, 0.85
  4028 1765-66-56      66    56.00       2160.    
     MULTIPLE LAYERS AND PROPORTIONS :    1, 0.15       2, 0.85
  4029 1765-71-32      71    32.00       2181.    
     MULTIPLE LAYERS AND PROPORTIONS :    1, 0.15       2, 0.85
  4030 1765-71-365     71    365.0       2188.    
     MULTIPLE LAYERS AND PROPORTIONS :    1, 0.15       2, 0.85
  4031 1816-10-153     10    153.0       2360.    
  4032 1825-42-335     42    335.0       2255.    
     MULTIPLE LAYERS AND PROPORTIONS :    1, 0.14       2, 0.86
  4033 1825-48-357     48    357.0       2225.    
     MULTIPLE LAYERS AND PROPORTIONS :    1, 0.14       2, 0.86
  4034 1825-56-27      56    27.00       2180.    
     MULTIPLE LAYERS AND PROPORTIONS :    1, 0.14       2, 0.86
  4035 1825-61-42      61    42.00       2142.    
     MULTIPLE LAYERS AND PROPORTIONS :    1, 0.14       2, 0.86
  4036 1825-66-19      66    19.00       2156.    
     MULTIPLE LAYERS AND PROPORTIONS :    1, 0.14       2, 0.86
  4037 1825-71-32      71    32.00       2178.    
     MULTIPLE LAYERS AND PROPORTIONS :    1, 0.14       2, 0.86
  4038 1825-71-365     71    365.0       2185.    
     MULTIPLE LAYERS AND PROPORTIONS :    1, 0.14       2, 0.86
  4039 1888-22-79      22    79.00       2317.    
  4040 1888-32-32      32    32.00       2295.    
  4041 1888-42-362     42    362.0       2247.    
  4042 1888-48-357     48    357.0       2222.    
  4043 1888-65-355     65    355.0       2147.    
  4044 1888-71-32      71    32.00       2173.    
  4045 1888-71-365     71    365.0       2179.    
  4046 1890-42-362     42    362.0       2247.    
     MULTIPLE LAYERS AND PROPORTIONS :    1, 0.20       2, 0.80
  4047 1890-48-357     48    357.0       2222.    
     MULTIPLE LAYERS AND PROPORTIONS :    1, 0.20       2, 0.80
  4048 1890-55-350     55    350.0       2180.    
     MULTIPLE LAYERS AND PROPORTIONS :    1, 0.20       2, 0.80
  4049 1890-61-42      61    42.00       2153.    
     MULTIPLE LAYERS AND PROPORTIONS :    1, 0.20       2, 0.80
  4050 1890-66-19      66    19.00       2152.    
     MULTIPLE LAYERS AND PROPORTIONS :    1, 0.20       2, 0.80
  4051 1890-71-32      71    32.00       2176.    
     MULTIPLE LAYERS AND PROPORTIONS :    1, 0.20       2, 0.80
  4052 1890-71-365     71    365.0       2180.    
     MULTIPLE LAYERS AND PROPORTIONS :    1, 0.20       2, 0.80
  4053 1812-12-91      12    91.00       2340.    
  4054 1812-22-62      22    62.00       2314.    
  4055 1812-32-60      32    60.00       2298.    
  4056 1827-42-362     42    362.0       2250.    
  4057 1827-48-357     48    357.0       2224.    
  4058 1827-56-25      56    25.00       2183.    
  4059 1827-61-42      61    42.00       2153.    
  4060 1827-66-19      66    19.00       2155.    
  4061 1827-71-32      71    32.00       2178.    
  4062 1827-71-365     71    365.0       2184.    
  4063 1779-12-109     12    109.0       2333.    
  4064 1779-17-80      17    80.00       2325.    
  4065 1779-22-79      22    79.00       2314.    
  4066 1779-42-362     42    362.0       2247.    
  4067 1870-42-364     42    364.0       2234.    
  4068 1817-56-20      56    20.00       2185.    
  4069 1817-66-34      66    34.00       2159.    
  4070 1747-71-60      71    60.00       2179.    
  4071 1722-1-152       1    152.0       2342.    
 Observation within a steady-state time step has been moved to the end of the time step.
  4072 1722-22-80      22    80.00       2297.    
  4073 1722-26-349     26    349.0       2292.    
  4074 1722-32-32      32    32.00       2282.    
  4075 1722-42-362     42    362.0       2237.    
  4076 1722-48-357     48    357.0       2221.    
  4077 1722-56-24      56    24.00       2192.    
  4078 1722-61-11      61    11.00       2180.    
  4079 1722-66-59      66    59.00       2175.    
  4080 1722-71-56      71    56.00       2178.    
  4081 1722-71-365     71    365.0       2182.    
  4082 1668-56-20      56    20.00       2191.    
  4083 1666-66-34      66    34.00       2190.    
  4084 1718-56-20      56    20.00       2187.    
     MULTIPLE LAYERS AND PROPORTIONS :    1, 0.79       2, 0.21
  4085 1718-61-59      61    59.00       2146.    
     MULTIPLE LAYERS AND PROPORTIONS :    1, 0.79       2, 0.21
  4086 1718-66-34      66    34.00       2164.    
     MULTIPLE LAYERS AND PROPORTIONS :    1, 0.79       2, 0.21
  4087 1662-56-20      56    20.00       2204.    
     MULTIPLE LAYERS AND PROPORTIONS :    1, 0.17       2, 0.83
  4088 1664-66-34      66    34.00       2183.    
  4089 1664-71-60      71    60.00       2192.    
  4090 1641-66-34      66    34.00       2201.    
  4091 1619-1-365       1    365.0       2394.    
 Observation within a steady-state time step has been moved to the end of the time step.
     MULTIPLE LAYERS AND PROPORTIONS :    1, 0.59       2, 0.41
  4092 1619-8-57        8    57.00       2377.    
     MULTIPLE LAYERS AND PROPORTIONS :    1, 0.59       2, 0.41
  4093 1619-12-59      12    59.00       2359.    
     MULTIPLE LAYERS AND PROPORTIONS :    1, 0.59       2, 0.41
  4094 1619-17-87      17    87.00       2354.    
     MULTIPLE LAYERS AND PROPORTIONS :    1, 0.59       2, 0.41
  4095 1619-22-79      22    79.00       2342.    
     MULTIPLE LAYERS AND PROPORTIONS :    1, 0.59       2, 0.41
  4096 1619-42-335     42    335.0       2296.    
     MULTIPLE LAYERS AND PROPORTIONS :    1, 0.59       2, 0.41
  4097 1608-35-121     35    121.0       2274.    
     MULTIPLE LAYERS AND PROPORTIONS :    1, 0.62       2, 0.38
  4098 1608-42-362     42    362.0       2247.    
     MULTIPLE LAYERS AND PROPORTIONS :    1, 0.62       2, 0.38
  4099 1608-48-357     48    357.0       2236.    
     MULTIPLE LAYERS AND PROPORTIONS :    1, 0.62       2, 0.38
  4100 1608-55-340     55    340.0       2209.    
     MULTIPLE LAYERS AND PROPORTIONS :    1, 0.62       2, 0.38
  4101 1608-60-348     60    348.0       2202.    
     MULTIPLE LAYERS AND PROPORTIONS :    1, 0.62       2, 0.38
  4102 1608-66-5       66    5.000       2200.    
     MULTIPLE LAYERS AND PROPORTIONS :    1, 0.62       2, 0.38
  4103 1608-71-1       71    1.000       2203.    
     MULTIPLE LAYERS AND PROPORTIONS :    1, 0.62       2, 0.38
  4104 1608-71-365     71    365.0       2204.    
     MULTIPLE LAYERS AND PROPORTIONS :    1, 0.62       2, 0.38
  4105 1714-56-33      56    33.00       2195.    
  4106 1714-71-29      71    29.00       2178.    
  4107 1714-71-365     71    365.0       2182.    
  4108 1715-66-59      66    59.00       2166.    
  4109 1715-71-29      71    29.00       2178.    
  4110 1715-71-365     71    365.0       2183.    
  4111 1716-66-59      66    59.00       2166.    
  4112 1716-71-29      71    29.00       2177.    
  4113 1716-71-365     71    365.0       2181.    
  4114 1717-71-32      71    32.00       2177.    
  4115 1717-71-365     71    365.0       2181.    
  4116 1689-71-29      71    29.00       2180.    
  4117 1689-71-365     71    365.0       2183.    
  4118 1696-66-59      66    59.00       2170.    
  4119 1696-71-29      71    29.00       2180.    
  4120 1696-71-365     71    365.0       2183.    
  4121 1673-2-274       2    274.0       2365.    
     MULTIPLE LAYERS AND PROPORTIONS :    1, 0.81       2, 0.19
  4122 1673-8-57        8    57.00       2356.    
     MULTIPLE LAYERS AND PROPORTIONS :    1, 0.81       2, 0.19
  4123 1673-12-59      12    59.00       2341.    
     MULTIPLE LAYERS AND PROPORTIONS :    1, 0.81       2, 0.19
  4124 1673-17-87      17    87.00       2331.    
     MULTIPLE LAYERS AND PROPORTIONS :    1, 0.81       2, 0.19
  4125 1673-22-79      22    79.00       2324.    
     MULTIPLE LAYERS AND PROPORTIONS :    1, 0.81       2, 0.19
  4126 1673-42-363     42    363.0       2258.    
     MULTIPLE LAYERS AND PROPORTIONS :    1, 0.81       2, 0.19
  4127 1673-48-357     48    357.0       2234.    
     MULTIPLE LAYERS AND PROPORTIONS :    1, 0.81       2, 0.19
  4128 1673-56-24      56    24.00       2195.    
     MULTIPLE LAYERS AND PROPORTIONS :    1, 0.81       2, 0.19
  4129 1723-1-32        1    32.00       2370.    
 Observation within a steady-state time step has been moved to the end of the time step.
  4130 1723-12-59      12    59.00       2331.    
  4131 1723-17-87      17    87.00       2319.    
  4132 1723-22-80      22    80.00       2306.    
  4133 1723-42-363     42    363.0       2250.    
  4134 1723-48-357     48    357.0       2231.    
  4135 1723-56-24      56    24.00       2195.    
  4136 1723-60-348     60    348.0       2174.    
  4137 1723-66-59      66    59.00       2169.    
  4138 1723-71-32      71    32.00       2180.    
  4139 1723-71-365     71    365.0       2185.    
  4140 1724-1-365       1    365.0       2346.    
 Observation within a steady-state time step has been moved to the end of the time step.
  4141 1724-12-59      12    59.00       2327.    
  4142 1724-17-82      17    82.00       2317.    
  4143 1724-22-80      22    80.00       2304.    
  4144 1724-42-363     42    363.0       2247.    
  4145 1724-48-357     48    357.0       2230.    
  4146 1724-56-20      56    20.00       2196.    
  4147 1724-60-348     60    348.0       2180.    
  4148 1724-66-59      66    59.00       2175.    
  4149 1724-71-56      71    56.00       2182.    
  4150 1724-71-365     71    365.0       2186.    
  4151 1694-17-82      17    82.00       2345.    
     MULTIPLE LAYERS AND PROPORTIONS :    1, 0.79       2, 0.21
  4152 1694-22-80      22    80.00       2332.    
     MULTIPLE LAYERS AND PROPORTIONS :    1, 0.79       2, 0.21
  4153 1699-42-363     42    363.0       2258.    
  4154 1699-48-357     48    357.0       2227.    
  4155 1699-55-356     55    356.0       2177.    
  4156 1699-60-349     60    349.0       2146.    
  4157 1699-66-56      66    56.00       2161.    
  4158 1699-71-32      71    32.00       2177.    
  4159 1699-71-365     71    365.0       2185.    
  4160 1695-7-158       7    158.0       2368.    
  4161 1695-42-363     42    363.0       2263.    
  4162 1695-48-357     48    357.0       2234.    
  4163 1695-56-24      56    24.00       2185.    
  4164 1695-60-336     60    336.0       2192.    
  4165 1695-66-56      66    56.00       2168.    
  4166 1695-71-56      71    56.00       2184.    
  4167 1695-71-365     71    365.0       2190.    
  4168 1658-2-217       2    217.0       2372.    
     MULTIPLE LAYERS AND PROPORTIONS :    1, 0.83       2, 0.17
  4169 1658-8-58        8    58.00       2367.    
     MULTIPLE LAYERS AND PROPORTIONS :    1, 0.83       2, 0.17
  4170 1658-12-59      12    59.00       2352.    
     MULTIPLE LAYERS AND PROPORTIONS :    1, 0.83       2, 0.17
  4171 1658-17-87      17    87.00       2338.    
     MULTIPLE LAYERS AND PROPORTIONS :    1, 0.83       2, 0.17
  4172 1658-22-81      22    81.00       2328.    
     MULTIPLE LAYERS AND PROPORTIONS :    1, 0.83       2, 0.17
  4173 1652-42-363     42    363.0       2266.    
  4174 1652-48-357     48    357.0       2241.    
  4175 1652-56-24      56    24.00       2202.    
  4176 1652-60-349     60    349.0       2177.    
  4177 1652-66-1       66    1.000       2177.    
  4178 1652-71-76      71    76.00       2192.    
  4179 1652-71-365     71    365.0       2196.    
  4180 1633-12-96      12    96.00       2371.    
  4181 1633-17-89      17    89.00       2356.    
  4182 1633-42-355     42    355.0       2266.    
  4183 1713-61-54      61    54.00       2157.    
  4184 1713-66-56      66    56.00       2183.    
  4185 1713-71-64      71    64.00       2202.    
  4186 1713-71-365     71    365.0       2207.    
  4187 1670-42-357     42    357.0       2269.    
     MULTIPLE LAYERS AND PROPORTIONS :    1, 0.40       2, 0.60
  4188 1656-22-80      22    80.00       2344.    
  4189 1656-31-351     31    351.0       2319.    
  4190 1656-37-343     37    343.0       2281.    
  4191 1656-55-360     55    360.0       2198.    
  4192 1656-61-42      61    42.00       2155.    
  4193 1656-66-56      66    56.00       2179.    
  4194 1656-71-33      71    33.00       2195.    
  4195 1656-71-365     71    365.0       2200.    
  4196 1655-17-89      17    89.00       2365.    
     MULTIPLE LAYERS AND PROPORTIONS :    1, 0.98       2, 0.02
  4197 1655-22-80      22    80.00       2348.    
     MULTIPLE LAYERS AND PROPORTIONS :    1, 0.98       2, 0.02
  4198 1655-42-355     42    355.0       2271.    
     MULTIPLE LAYERS AND PROPORTIONS :    1, 0.98       2, 0.02
  4199 1655-48-364     48    364.0       2236.    
     MULTIPLE LAYERS AND PROPORTIONS :    1, 0.98       2, 0.02
  4200 1651-42-362     42    362.0       2268.    
  4201 1651-48-355     48    355.0       2239.    
  4202 1657-60-349     60    349.0       2162.    
     MULTIPLE LAYERS AND PROPORTIONS :    2, 0.88       3, 0.12
  4203 1657-66-56      66    56.00       2177.    
     MULTIPLE LAYERS AND PROPORTIONS :    2, 0.88       3, 0.12
  4204 1657-71-32      71    32.00       2193.    
     MULTIPLE LAYERS AND PROPORTIONS :    2, 0.88       3, 0.12
  4205 1657-71-365     71    365.0       2198.    
     MULTIPLE LAYERS AND PROPORTIONS :    2, 0.88       3, 0.12
  4206 1614-12-96      12    96.00       2380.    
  4207 1614-17-89      17    89.00       2369.    
  4208 1614-22-80      22    80.00       2347.    
  4209 1615-17-89      17    89.00       2366.    
  4210 1615-22-80      22    80.00       2347.    
  4211 1615-42-356     42    356.0       2273.    
  4212 1615-48-355     48    355.0       2242.    
  4213 1615-56-20      56    20.00       2207.    
  4214 1615-61-31      61    31.00       2163.    
  4215 1615-66-56      66    56.00       2186.    
  4216 1615-71-33      71    33.00       2200.    
  4217 1615-71-365     71    365.0       2204.    
  4218 1611-42-356     42    356.0       2272.    
     MULTIPLE LAYERS AND PROPORTIONS :    1, 0.19       2, 0.81
  4219 1611-48-355     48    355.0       2241.    
     MULTIPLE LAYERS AND PROPORTIONS :    1, 0.19       2, 0.81
  4220 1611-56-20      56    20.00       2207.    
     MULTIPLE LAYERS AND PROPORTIONS :    1, 0.19       2, 0.81
  4221 1611-61-31      61    31.00       2163.    
     MULTIPLE LAYERS AND PROPORTIONS :    1, 0.19       2, 0.81
  4222 1611-66-56      66    56.00       2185.    
     MULTIPLE LAYERS AND PROPORTIONS :    1, 0.19       2, 0.81
  4223 1611-71-33      71    33.00       2199.    
     MULTIPLE LAYERS AND PROPORTIONS :    1, 0.19       2, 0.81
  4224 1611-71-365     71    365.0       2204.    
     MULTIPLE LAYERS AND PROPORTIONS :    1, 0.19       2, 0.81
  4225 1708-42-357     42    357.0       2272.    
     MULTIPLE LAYERS AND PROPORTIONS :    1, 0.49       2, 0.51
  4226 1708-48-341     48    341.0       2223.    
     MULTIPLE LAYERS AND PROPORTIONS :    1, 0.49       2, 0.51
  4227 1693-17-87      17    87.00       2379.    
  4228 1693-22-79      22    79.00       2362.    
  4229 1693-42-356     42    356.0       2271.    
  4230 1693-48-356     48    356.0       2236.    
  4231 1687-42-356     42    356.0       2273.    
     MULTIPLE LAYERS AND PROPORTIONS :    1, 0.19       2, 0.81
  4232 1687-48-356     48    356.0       2238.    
     MULTIPLE LAYERS AND PROPORTIONS :    1, 0.19       2, 0.81
  4233 1687-56-27      56    27.00       2207.    
     MULTIPLE LAYERS AND PROPORTIONS :    1, 0.19       2, 0.81
  4234 1687-61-26      61    26.00       2181.    
     MULTIPLE LAYERS AND PROPORTIONS :    1, 0.19       2, 0.81
  4235 1687-66-56      66    56.00       2192.    
     MULTIPLE LAYERS AND PROPORTIONS :    1, 0.19       2, 0.81
  4236 1687-71-33      71    33.00       2207.    
     MULTIPLE LAYERS AND PROPORTIONS :    1, 0.19       2, 0.81
  4237 1687-71-365     71    365.0       2212.    
     MULTIPLE LAYERS AND PROPORTIONS :    1, 0.19       2, 0.81
  4238 1681-17-87      17    87.00       2373.    
  4239 1681-22-79      22    79.00       2354.    
  4240 1681-26-294     26    294.0       2343.    
  4241 1681-48-356     48    356.0       2235.    
  4242 1681-66-56      66    56.00       2184.    
  4243 1681-71-33      71    33.00       2201.    
  4244 1681-71-365     71    365.0       2202.    
  4245 1688-42-356     42    356.0       2269.    
     MULTIPLE LAYERS AND PROPORTIONS :    1, 0.16       2, 0.84
  4246 1688-48-356     48    356.0       2235.    
     MULTIPLE LAYERS AND PROPORTIONS :    1, 0.16       2, 0.84
  4247 1688-55-364     55    364.0       2210.    
     MULTIPLE LAYERS AND PROPORTIONS :    1, 0.16       2, 0.84
  4248 1688-61-21      61    21.00       2182.    
     MULTIPLE LAYERS AND PROPORTIONS :    1, 0.16       2, 0.84
  4249 1688-66-56      66    56.00       2184.    
     MULTIPLE LAYERS AND PROPORTIONS :    1, 0.16       2, 0.84
  4250 1688-71-33      71    33.00       2201.    
     MULTIPLE LAYERS AND PROPORTIONS :    1, 0.16       2, 0.84
  4251 1688-71-365     71    365.0       2203.    
     MULTIPLE LAYERS AND PROPORTIONS :    1, 0.16       2, 0.84
  4252 1596-12-96      12    96.00       2385.    
  4253 1596-22-81      22    81.00       2353.    
  4254 1596-42-356     42    356.0       2271.    
  4255 1621-42-356     42    356.0       2275.    
     MULTIPLE LAYERS AND PROPORTIONS :    1, 0.46       2, 0.54
  4256 1621-48-356     48    356.0       2242.    
     MULTIPLE LAYERS AND PROPORTIONS :    1, 0.46       2, 0.54
  4257 1621-56-6       56    6.000       2216.    
     MULTIPLE LAYERS AND PROPORTIONS :    1, 0.46       2, 0.54
  4258 1621-61-42      61    42.00       2165.    
     MULTIPLE LAYERS AND PROPORTIONS :    1, 0.46       2, 0.54
  4259 1621-65-355     65    355.0       2189.    
     MULTIPLE LAYERS AND PROPORTIONS :    1, 0.46       2, 0.54
  4260 1621-71-33      71    33.00       2206.    
     MULTIPLE LAYERS AND PROPORTIONS :    1, 0.46       2, 0.54
  4261 1621-71-365     71    365.0       2209.    
     MULTIPLE LAYERS AND PROPORTIONS :    1, 0.46       2, 0.54
  4262 1605-11-45      11    45.00       2405.    
  4263 1630-17-87      17    87.00       2382.    
  4264 1630-22-79      22    79.00       2366.    
  4265 1630-42-355     42    355.0       2277.    
  4266 1630-48-356     48    356.0       2242.    
  4267 1630-66-59      66    59.00       2198.    
  4268 1630-71-33      71    33.00       2210.    
  4269 1630-71-365     71    365.0       2211.    
  4270 1629-42-355     42    355.0       2274.    
  4271 1629-48-356     48    356.0       2242.    
  4272 1629-56-9       56    9.000       2225.    
  4273 1629-61-21      61    21.00       2198.    
  4274 1629-66-59      66    59.00       2199.    
  4275 1629-71-33      71    33.00       2211.    
  4276 1629-71-365     71    365.0       2213.    
  4277 1683-22-79      22    79.00       2379.    
     MULTIPLE LAYERS AND PROPORTIONS :    1, 0.71       2, 0.29
  4278 1683-26-349     26    349.0       2360.    
     MULTIPLE LAYERS AND PROPORTIONS :    1, 0.71       2, 0.29
  4279 1683-42-355     42    355.0       2286.    
     MULTIPLE LAYERS AND PROPORTIONS :    1, 0.71       2, 0.29
  4280 1683-48-355     48    355.0       2256.    
  4281 1683-56-27      56    27.00       2237.    
  4282 1683-60-349     60    349.0       2213.    
  4283 1683-66-54      66    54.00       2213.    
     MULTIPLE LAYERS AND PROPORTIONS :    1, 0.71       2, 0.29
  4284 1679-42-355     42    355.0       2286.    
  4285 1679-48-355     48    355.0       2251.    
  4286 1679-56-27      56    27.00       2238.    
  4287 1679-61-11      61    11.00       2213.    
  4288 1680-66-54      66    54.00       2212.    
  4289 1654-42-355     42    355.0       2280.    
  4290 1654-48-355     48    355.0       2244.    
  4291 1654-56-27      56    27.00       2225.    
  4292 1654-61-14      61    14.00       2198.    
  4293 1654-66-54      66    54.00       2206.    
  4294 1654-71-64      71    64.00       2218.    
  4295 1654-71-365     71    365.0       2221.    
  4296 1660-42-355     42    355.0       2279.    
  4297 1660-48-355     48    355.0       2243.    
  4298 1660-56-27      56    27.00       2224.    
  4299 1660-60-349     60    349.0       2198.    
  4300 1660-66-54      66    54.00       2205.    
  4301 1660-71-64      71    64.00       2218.    
  4302 1660-71-365     71    365.0       2221.    
  4303 1554-22-81      22    81.00       2379.    
     MULTIPLE LAYERS AND PROPORTIONS :    1, 0.91       2, 0.09
  4304 1554-27-15      27    15.00       2357.    
     MULTIPLE LAYERS AND PROPORTIONS :    1, 0.91       2, 0.09
  4305 1554-32-60      32    60.00       2340.    
     MULTIPLE LAYERS AND PROPORTIONS :    1, 0.91       2, 0.09
  4306 1554-56-26      56    26.00       2254.    
  4307 1554-61-12      61    12.00       2230.    
  4308 1554-66-59      66    59.00       2227.    
  4309 1554-71-54      71    54.00       2233.    
  4310 1554-71-365     71    365.0       2236.    
  4311 1504-22-60      22    60.00       2375.    
     MULTIPLE LAYERS AND PROPORTIONS :    1, 0.89       2, 0.11
  4312 1548-7-158       7    158.0       2406.    
  4313 1548-11-82      11    82.00       2402.    
  4314 1548-17-87      17    87.00       2380.    
  4315 1548-22-81      22    81.00       2365.    
  4316 1548-26-278     26    278.0       2343.    
  4317 1550-48-365     48    365.0       2255.    
     MULTIPLE LAYERS AND PROPORTIONS :    1, 0.39       2, 0.61
  4318 1550-56-6       56    6.000       2225.    
     MULTIPLE LAYERS AND PROPORTIONS :    1, 0.39       2, 0.61
  4319 1550-61-27      61    27.00       2193.    
     MULTIPLE LAYERS AND PROPORTIONS :    1, 0.39       2, 0.61
  4320 1550-66-28      66    28.00       2206.    
     MULTIPLE LAYERS AND PROPORTIONS :    1, 0.39       2, 0.61
  4321 1550-71-13      71    13.00       2215.    
     MULTIPLE LAYERS AND PROPORTIONS :    1, 0.39       2, 0.61
  4322 1550-71-365     71    365.0       2219.    
     MULTIPLE LAYERS AND PROPORTIONS :    1, 0.39       2, 0.61
  4323 1559-66-46      66    46.00       2194.    
  4324 1559-71-365     71    365.0       2207.    
  4325 1569-32-60      32    60.00       2330.    
  4326 1569-37-89      37    89.00       2305.    
  4327 1569-42-356     42    356.0       2281.    
  4328 1569-48-355     48    355.0       2252.    
  4329 1569-56-26      56    26.00       2222.    
  4330 1569-61-24      61    24.00       2180.    
  4331 1569-66-28      66    28.00       2199.    
  4332 1569-71-365     71    365.0       2215.    
  4333 1540-17-86      17    86.00       2377.    
  4334 1540-22-81      22    81.00       2362.    
  4335 1540-26-279     26    279.0       2342.    
  4336 1540-42-355     42    355.0       2284.    
  4337 1540-48-355     48    355.0       2257.    
  4338 1540-56-26      56    26.00       2232.    
  4339 1540-60-350     60    350.0       2200.    
  4340 1540-66-28      66    28.00       2205.    
  4341 1540-71-365     71    365.0       2218.    
  4342 1526-17-87      17    87.00       2378.    
  4343 1526-22-81      22    81.00       2363.    
  4344 1526-26-349     26    349.0       2384.    
  4345 1526-32-60      32    60.00       2329.    
  4346 1526-42-356     42    356.0       2289.    
  4347 1526-48-355     48    355.0       2269.    
  4348 1526-56-26      56    26.00       2243.    
  4349 1526-60-350     60    350.0       2211.    
  4350 1526-65-355     65    355.0       2210.    
  4351 1526-71-362     70    362.0       2219.    
  4352 1518-42-357     42    357.0       2288.    
     MULTIPLE LAYERS AND PROPORTIONS :    1, 0.24       2, 0.76
  4353 1517-71-53      71    53.00       2226.    
  4354 1517-71-365     71    365.0       2228.    
  4355 1564-56-26      56    26.00       2224.    
  4356 1564-71-365     71    365.0       2211.    
  4357 1552-12-59      12    59.00       2387.    
  4358 1552-17-85      17    85.00       2369.    
  4359 1552-22-80      22    80.00       2348.    
  4360 1557-42-356     42    356.0       2279.    
  4361 1557-48-355     48    355.0       2255.    
  4362 1557-56-20      56    20.00       2229.    
  4363 1557-71-13      71    13.00       2210.    
  4364 1557-71-365     71    365.0       2214.    
  4365 1570-2-98        2    98.00       2390.    
  4366 1631-12-96      12    96.00       2393.    
  4367 1631-17-87      17    87.00       2379.    
  4368 1631-22-80      22    80.00       2357.    
  4369 1631-26-279     26    279.0       2340.    
  4370 1631-42-355     42    355.0       2287.    
  4371 1631-48-355     48    355.0       2262.    
  4372 1631-56-26      56    26.00       2241.    
  4373 1631-66-32      66    32.00       2212.    
  4374 1631-71-33      71    33.00       2220.    
  4375 1631-71-365     71    365.0       2226.    
  4376 1519-42-355     42    355.0       2288.    
     MULTIPLE LAYERS AND PROPORTIONS :    1, 0.11       2, 0.89
  4377 1519-48-355     48    355.0       2265.    
     MULTIPLE LAYERS AND PROPORTIONS :    1, 0.11       2, 0.89
  4378 1519-56-20      56    20.00       2242.    
     MULTIPLE LAYERS AND PROPORTIONS :    1, 0.11       2, 0.89
  4379 1519-61-18      61    18.00       2212.    
     MULTIPLE LAYERS AND PROPORTIONS :    1, 0.11       2, 0.89
  4380 1519-66-32      66    32.00       2212.    
     MULTIPLE LAYERS AND PROPORTIONS :    1, 0.11       2, 0.89
  4381 1519-71-33      71    33.00       2222.    
     MULTIPLE LAYERS AND PROPORTIONS :    1, 0.11       2, 0.89
  4382 1519-71-365     71    365.0       2225.    
     MULTIPLE LAYERS AND PROPORTIONS :    1, 0.11       2, 0.89
  4383 1542-56-20      56    20.00       2230.    
  4384 1542-60-350     60    350.0       2189.    
  4385 1542-66-54      66    54.00       2201.    
  4386 1542-71-13      71    13.00       2211.    
  4387 1542-71-365     71    365.0       2215.    
  4388 1520-17-87      17    87.00       2376.    
  4389 1520-22-80      22    80.00       2358.    
  4390 1520-32-60      32    60.00       2328.    
  4391 1520-42-356     42    356.0       2288.    
  4392 1597-56-27      56    27.00       2221.    
  4393 1597-66-26      66    26.00       2193.    
  4394 1597-71-28      71    28.00       2205.    
  4395 1597-71-365     71    365.0       2208.    
  4396 1581-11-256     11    256.0       2383.    
  4397 1583-56-27      56    27.00       2226.    
  4398 1583-66-26      66    26.00       2197.    
  4399 1583-71-28      71    28.00       2207.    
  4400 1583-71-29      71    29.00       2209.    
  4401 1583-71-365     71    365.0       2210.    
  4402 1565-71-28      71    28.00       2215.    
  4403 1565-71-365     71    365.0       2217.    
  4404 1595-11-257     11    257.0       2369.    
  4405 1533-8-65        8    65.00       2373.    
  4406 1533-12-96      12    96.00       2366.    
  4407 1533-17-82      17    82.00       2354.    
  4408 1533-22-80      22    80.00       2339.    
  4409 1533-27-15      27    15.00       2324.    
  4410 1533-42-363     42    363.0       2280.    
  4411 1537-42-363     42    363.0       2277.    
  4412 1537-48-357     48    357.0       2262.    
  4413 1541-66-55      66    55.00       2208.    
  4414 1541-71-76      71    76.00       2217.    
  4415 1541-71-365     71    365.0       2216.    
  4416 1510-42-357     42    357.0       2288.    
  4417 1510-48-337     48    337.0       2274.    
  4418 1510-56-18      56    18.00       2247.    
  4419 1510-60-333     60    333.0       2215.    
  4420 1510-65-299     65    299.0       2215.    
  4421 1510-71-11      71    11.00       2226.    
  4422 1510-71-365     71    365.0       2232.    
  4423 1511-31-351     31    351.0       2321.    
  4424 1511-37-27      37    27.00       2298.    
  4425 1511-42-357     42    357.0       2285.    
  4426 1511-48-337     48    337.0       2270.    
  4427 1511-56-18      56    18.00       2243.    
  4428 1511-60-333     60    333.0       2210.    
  4429 1511-65-299     65    299.0       2210.    
  4430 1511-71-12      71    12.00       2223.    
  4431 1511-71-365     71    365.0       2231.    
  4432 1512-31-351     31    351.0       2313.    
  4433 1512-42-357     42    357.0       2281.    
  4434 1512-48-337     48    337.0       2266.    
  4435 1512-56-18      56    18.00       2244.    
  4436 1513-31-351     31    351.0       2313.    
  4437 1513-42-357     42    357.0       2279.    
  4438 1513-48-337     48    337.0       2262.    
  4439 1513-56-18      56    18.00       2241.    
  4440 1513-60-333     60    333.0       2223.    
  4441 1513-65-299     65    299.0       2216.    
  4442 1513-71-11      71    11.00       2225.    
  4443 1513-71-365     71    365.0       2229.    
  4444 1505-66-26      66    26.00       2212.    
  4445 1505-71-53      71    53.00       2224.    
  4446 1505-71-365     71    365.0       2227.    
  4447 1546-8-65        8    65.00       2365.    
  4448 1546-10-31      10    31.00       2359.    
  4449 1546-17-82      17    82.00       2340.    
  4450 1546-22-81      22    81.00       2325.    
  4451 1551-42-363     42    363.0       2269.    
     MULTIPLE LAYERS AND PROPORTIONS :    1, 0.51       2, 0.49
  4452 1551-48-357     48    357.0       2247.    
     MULTIPLE LAYERS AND PROPORTIONS :    1, 0.51       2, 0.49
  4453 1551-56-13      56    13.00       2223.    
     MULTIPLE LAYERS AND PROPORTIONS :    1, 0.51       2, 0.49
  4454 1551-61-31      61    31.00       2211.    
     MULTIPLE LAYERS AND PROPORTIONS :    1, 0.51       2, 0.49
  4455 1551-66-19      66    19.00       2205.    
     MULTIPLE LAYERS AND PROPORTIONS :    1, 0.51       2, 0.49
  4456 1551-71-32      71    32.00       2214.    
     MULTIPLE LAYERS AND PROPORTIONS :    1, 0.51       2, 0.49
  4457 1551-71-365     71    365.0       2217.    
     MULTIPLE LAYERS AND PROPORTIONS :    1, 0.51       2, 0.49
  4458 1525-10-154     10    154.0       2356.    
  4459 1525-22-83      22    83.00       2327.    
  4460 1525-32-60      32    60.00       2295.    
  4461 1525-42-363     42    363.0       2270.    
  4462 1525-56-25      56    25.00       2233.    
  4463 1525-60-351     60    351.0       2221.    
  4464 1525-66-1       66    1.000       2214.    
  4465 1525-71-32      71    32.00       2220.    
  4466 1525-71-365     71    365.0       2222.    
  4467 1813-17-82      17    82.00       2346.    
  4468 1813-22-82      22    82.00       2331.    
  4469 1813-26-294     26    294.0       2315.    
  4470 1813-42-363     42    363.0       2274.    
  4471 1813-48-357     48    357.0       2254.    
  4472 1813-56-25      56    25.00       2232.    
  4473 1813-60-351     60    351.0       2216.    
  4474 1813-66-19      66    19.00       2211.    
  4475 1813-71-32      71    32.00       2219.    
  4476 1813-71-365     71    365.0       2221.    
  4477 1538-10-154     10    154.0       2366.    
     MULTIPLE LAYERS AND PROPORTIONS :    1, 0.14       2, 0.86
  4478 1538-17-86      17    86.00       2350.    
     MULTIPLE LAYERS AND PROPORTIONS :    1, 0.14       2, 0.86
  4479 1538-22-82      22    82.00       2333.    
     MULTIPLE LAYERS AND PROPORTIONS :    1, 0.14       2, 0.86
  4480 1538-42-363     42    363.0       2276.    
     MULTIPLE LAYERS AND PROPORTIONS :    1, 0.14       2, 0.86
  4481 1567-12-59      12    59.00       2335.    
     MULTIPLE LAYERS AND PROPORTIONS :    1, 0.71       2, 0.29
  4482 1567-17-85      17    85.00       2326.    
     MULTIPLE LAYERS AND PROPORTIONS :    1, 0.71       2, 0.29
  4483 1567-22-53      22    53.00       2311.    
     MULTIPLE LAYERS AND PROPORTIONS :    1, 0.71       2, 0.29
  4484 1567-27-15      27    15.00       2301.    
     MULTIPLE LAYERS AND PROPORTIONS :    1, 0.71       2, 0.29
  4485 1567-32-65      32    65.00       2290.    
     MULTIPLE LAYERS AND PROPORTIONS :    1, 0.71       2, 0.29
  4486 1578-42-362     42    362.0       2258.    
  4487 1579-34-182     34    182.0       2273.    
     MULTIPLE LAYERS AND PROPORTIONS :    1, 0.20       2, 0.80
  4488 1466-12-96      12    96.00       2355.    
  4489 1466-17-89      17    89.00       2342.    
  4490 1466-32-60      32    60.00       2285.    
  4491 1466-37-89      37    89.00       2283.    
  4492 1466-42-363     42    363.0       2278.    
  4493 1466-48-357     48    357.0       2273.    
  4494 1466-56-25      56    25.00       2260.    
  4495 1466-71-365     71    365.0       2262.    
  4496 1467-17-89      17    89.00       2339.    
  4497 1467-22-60      22    60.00       2341.    
  4498 1467-48-357     48    357.0       2284.    
  4499 1467-56-25      56    25.00       2271.    
  4500 1467-60-351     60    351.0       2249.    
  4501 1467-65-355     65    355.0       2244.    
  4502 1467-71-52      71    52.00       2248.    
  4503 1467-71-365     71    365.0       2251.    
  4504 1470-17-82      17    82.00       2358.    
  4505 1470-22-82      22    82.00       2341.    
  4506 1470-42-362     42    362.0       2281.    
  4507 1470-48-357     48    357.0       2261.    
  4508 1470-56-18      56    18.00       2245.    
  4509 1470-60-308     60    308.0       2248.    
  4510 1470-71-365     71    365.0       2236.    
  4511 1500-27-60      27    60.00       2313.    
     MULTIPLE LAYERS AND PROPORTIONS :    1, 0.32       2, 0.68
  4512 1500-42-362     42    362.0       2271.    
     MULTIPLE LAYERS AND PROPORTIONS :    1, 0.32       2, 0.68
  4513 1500-48-357     48    357.0       2256.    
     MULTIPLE LAYERS AND PROPORTIONS :    1, 0.32       2, 0.68
  4514 1500-56-25      56    25.00       2238.    
     MULTIPLE LAYERS AND PROPORTIONS :    1, 0.32       2, 0.68
  4515 1500-60-351     60    351.0       2226.    
     MULTIPLE LAYERS AND PROPORTIONS :    1, 0.32       2, 0.68
  4516 1459-11-68      11    68.00       2372.    
  4517 1459-17-82      17    82.00       2352.    
  4518 1459-22-60      22    60.00       2338.    
  4519 1459-26-293     26    293.0       2313.    
  4520 1459-42-363     42    363.0       2281.    
  4521 1459-48-357     48    357.0       2271.    
  4522 1459-56-25      56    25.00       2257.    
  4523 1459-60-351     60    351.0       2245.    
  4524 1459-66-12      66    12.00       2239.    
  4525 1459-71-365     71    365.0       2240.    
  4526 1455-12-96      12    96.00       2383.    
  4527 1455-17-82      17    82.00       2366.    
  4528 1443-12-96      12    96.00       2386.    
  4529 1443-17-82      17    82.00       2368.    
  4530 1443-32-60      32    60.00       2324.    
  4531 1443-38-60      38    60.00       2317.    
  4532 1443-42-364     42    364.0       2288.    
  4533 1443-48-341     48    341.0       2308.    
  4534 1486-56-56      56    56.00       2255.    
  4535 1486-71-365     71    365.0       2233.    
  4536 1485-71-365     71    365.0       2233.    
  4537 1475-11-305     11    305.0       2358.    
  4538 1465-17-82      17    82.00       2367.    
  4539 1465-22-82      22    82.00       2351.    
  4540 1465-42-356     42    356.0       2285.    
  4541 1465-48-355     48    355.0       2273.    
  4542 1465-56-25      56    25.00       2256.    
  4543 1465-60-351     60    351.0       2237.    
  4544 1465-66-1       66    1.000       2234.    
  4545 1465-71-365     71    365.0       2240.    
  4546 1440-17-82      17    82.00       2373.    
     MULTIPLE LAYERS AND PROPORTIONS :    1, 0.14       2, 0.86
  4547 1440-22-80      22    80.00       2355.    
     MULTIPLE LAYERS AND PROPORTIONS :    1, 0.14       2, 0.86
  4548 1440-32-60      32    60.00       2326.    
     MULTIPLE LAYERS AND PROPORTIONS :    1, 0.14       2, 0.86
  4549 1440-37-90      37    90.00       2301.    
     MULTIPLE LAYERS AND PROPORTIONS :    1, 0.14       2, 0.86
  4550 1440-48-355     48    355.0       2276.    
     MULTIPLE LAYERS AND PROPORTIONS :    1, 0.14       2, 0.86
  4551 1441-11-283     11    283.0       2409.    
     MULTIPLE LAYERS AND PROPORTIONS :    1, 0.79       2, 0.21
  4552 1474-17-87      17    87.00       2384.    
  4553 1474-22-80      22    80.00       2367.    
  4554 1474-61-31      61    31.00       2235.    
  4555 1474-71-68      71    68.00       2238.    
  4556 1474-71-365     71    365.0       2238.    
  4557 1478-48-355     48    355.0       2282.    
     MULTIPLE LAYERS AND PROPORTIONS :    1, 0.27       2, 0.73
  4558 1478-56-26      56    26.00       2259.    
     MULTIPLE LAYERS AND PROPORTIONS :    1, 0.27       2, 0.73
  4559 1478-60-350     60    350.0       2238.    
     MULTIPLE LAYERS AND PROPORTIONS :    1, 0.27       2, 0.73
  4560 1478-65-355     65    355.0       2224.    
     MULTIPLE LAYERS AND PROPORTIONS :    1, 0.27       2, 0.73
  4561 1478-71-68      71    68.00       2237.    
     MULTIPLE LAYERS AND PROPORTIONS :    1, 0.27       2, 0.73
  4562 1478-71-365     71    365.0       2238.    
     MULTIPLE LAYERS AND PROPORTIONS :    1, 0.27       2, 0.73
  4563 1453-17-85      17    85.00       2382.    
  4564 1453-22-80      22    80.00       2362.    
  4565 1453-42-356     42    356.0       2296.    
  4566 1453-48-355     48    355.0       2280.    
  4567 1453-66-49      66    49.00       2244.    
  4568 1453-71-68      71    68.00       2245.    
  4569 1453-71-365     71    365.0       2244.    
  4570 1454-42-356     42    356.0       2295.    
     MULTIPLE LAYERS AND PROPORTIONS :    1, 0.11       2, 0.89
  4571 1454-48-355     48    355.0       2279.    
     MULTIPLE LAYERS AND PROPORTIONS :    1, 0.11       2, 0.89
  4572 1454-55-362     55    362.0       2264.    
     MULTIPLE LAYERS AND PROPORTIONS :    1, 0.11       2, 0.89
  4573 1454-61-31      61    31.00       2239.    
     MULTIPLE LAYERS AND PROPORTIONS :    1, 0.11       2, 0.89
  4574 1454-66-49      66    49.00       2238.    
     MULTIPLE LAYERS AND PROPORTIONS :    1, 0.11       2, 0.89
  4575 1454-71-68      71    68.00       2244.    
     MULTIPLE LAYERS AND PROPORTIONS :    1, 0.11       2, 0.89
  4576 1454-71-365     71    365.0       2244.    
     MULTIPLE LAYERS AND PROPORTIONS :    1, 0.11       2, 0.89
  4577 1447-66-49      66    49.00       2234.    
  4578 1447-71-68      71    68.00       2240.    
  4579 1447-71-365     71    365.0       2241.    
  4580 1444-42-356     42    356.0       2300.    
     MULTIPLE LAYERS AND PROPORTIONS :    1, 0.65       2, 0.35
  4581 1444-48-355     48    355.0       2280.    
     MULTIPLE LAYERS AND PROPORTIONS :    1, 0.65       2, 0.35
  4582 1444-55-362     55    362.0       2266.    
     MULTIPLE LAYERS AND PROPORTIONS :    1, 0.65       2, 0.35
  4583 1444-61-6       61    6.000       2244.    
     MULTIPLE LAYERS AND PROPORTIONS :    1, 0.65       2, 0.35
  4584 1444-66-49      66    49.00       2245.    
     MULTIPLE LAYERS AND PROPORTIONS :    1, 0.65       2, 0.35
  4585 1444-71-68      71    68.00       2248.    
     MULTIPLE LAYERS AND PROPORTIONS :    1, 0.65       2, 0.35
  4586 1444-71-365     71    365.0       2249.    
     MULTIPLE LAYERS AND PROPORTIONS :    1, 0.65       2, 0.35
  4587 1499-11-360     11    360.0       2412.    
     MULTIPLE LAYERS AND PROPORTIONS :    1, 0.37       2, 0.63
  4588 1499-17-85      17    85.00       2392.    
     MULTIPLE LAYERS AND PROPORTIONS :    1, 0.37       2, 0.63
  4589 1499-22-81      22    81.00       2373.    
     MULTIPLE LAYERS AND PROPORTIONS :    1, 0.37       2, 0.63
  4590 1499-48-355     48    355.0       2278.    
     MULTIPLE LAYERS AND PROPORTIONS :    1, 0.37       2, 0.63
  4591 1499-56-20      56    20.00       2259.    
     MULTIPLE LAYERS AND PROPORTIONS :    1, 0.37       2, 0.63
  4592 1499-60-350     60    350.0       2237.    
     MULTIPLE LAYERS AND PROPORTIONS :    1, 0.37       2, 0.63
  4593 1499-66-14      66    14.00       2227.    
     MULTIPLE LAYERS AND PROPORTIONS :    1, 0.37       2, 0.63
  4594 1499-71-64      71    64.00       2230.    
     MULTIPLE LAYERS AND PROPORTIONS :    1, 0.37       2, 0.63
  4595 1499-71-365     71    365.0       2231.    
     MULTIPLE LAYERS AND PROPORTIONS :    1, 0.37       2, 0.63
  4596 1490-66-45      66    45.00       2231.    
  4597 1490-71-64      71    64.00       2237.    
  4598 1490-71-365     71    365.0       2236.    
  4599 1436-71-64      71    64.00       2247.    
  4600 1436-71-365     71    365.0       2247.    
  4601 1488-17-87      17    87.00       2396.    
  4602 1488-22-81      22    81.00       2374.    
  4603 1488-48-350     48    350.0       2281.    
  4604 1488-56-20      56    20.00       2281.    
  4605 1502-17-85      17    85.00       2394.    
     MULTIPLE LAYERS AND PROPORTIONS :    1, 0.40       2, 0.60
  4606 1502-22-81      22    81.00       2374.    
     MULTIPLE LAYERS AND PROPORTIONS :    1, 0.40       2, 0.60
  4607 1502-48-365     48    365.0       2275.    
  4608 1502-56-20      56    20.00       2259.    
  4609 1502-60-350     60    350.0       2239.    
  4610 1502-66-46      66    46.00       2231.    
     MULTIPLE LAYERS AND PROPORTIONS :    1, 0.40       2, 0.60
  4611 1502-71-54      71    54.00       2236.    
     MULTIPLE LAYERS AND PROPORTIONS :    1, 0.40       2, 0.60
  4612 1502-71-365     71    365.0       2237.    
     MULTIPLE LAYERS AND PROPORTIONS :    1, 0.40       2, 0.60
  4613 1477-8-69        8    69.00       2422.    
  4614 1477-12-96      12    96.00       2416.    
  4615 1477-17-86      17    86.00       2396.    
  4616 1477-22-81      22    81.00       2375.    
  4617 1477-32-60      32    60.00       2339.    
  4618 1458-17-85      17    85.00       2403.    
  4619 1458-22-81      22    81.00       2374.    
  4620 1458-42-355     42    355.0       2307.    
  4621 1458-48-350     48    350.0       2294.    
  4622 1458-56-20      56    20.00       2293.    
  4623 1458-60-350     60    350.0       2267.    
  4624 1458-71-64      71    64.00       2254.    
  4625 1458-71-365     71    365.0       2254.    
  4626 1460-66-1       66    1.000       2248.    
  4627 1460-71-64      71    64.00       2252.    
  4628 1460-71-365     71    365.0       2252.    
  4629 1429-17-85      17    85.00       2413.    
     MULTIPLE LAYERS AND PROPORTIONS :    1, 0.19       2, 0.81
  4630 1429-22-81      22    81.00       2380.    
     MULTIPLE LAYERS AND PROPORTIONS :    1, 0.19       2, 0.81
  4631 1429-42-355     42    355.0       2327.    
     MULTIPLE LAYERS AND PROPORTIONS :    1, 0.19       2, 0.81
  4632 1429-48-350     48    350.0       2319.    
     MULTIPLE LAYERS AND PROPORTIONS :    1, 0.19       2, 0.81
  4633 1429-56-20      56    20.00       2319.    
     MULTIPLE LAYERS AND PROPORTIONS :    1, 0.19       2, 0.81
  4634 1429-60-350     60    350.0       2295.    
     MULTIPLE LAYERS AND PROPORTIONS :    1, 0.19       2, 0.81
  4635 1429-66-53      66    53.00       2283.    
     MULTIPLE LAYERS AND PROPORTIONS :    1, 0.19       2, 0.81
  4636 1429-71-13      71    13.00       2281.    
     MULTIPLE LAYERS AND PROPORTIONS :    1, 0.19       2, 0.81
  4637 1429-71-365     71    365.0       2281.    
     MULTIPLE LAYERS AND PROPORTIONS :    1, 0.19       2, 0.81
  4638 1431-17-85      17    85.00       2421.    
  4639 1431-22-82      22    82.00       2385.    
  4640 1431-27-63      27    63.00       2379.    
  4641 1431-32-60      32    60.00       2360.    
  4642 1431-42-355     42    355.0       2337.    
  4643 1431-48-350     48    350.0       2329.    
  4644 1431-56-20      56    20.00       2334.    
  4645 1431-60-350     60    350.0       2307.    
  4646 1431-71-13      71    13.00       2294.    
  4647 1431-71-365     71    365.0       2293.    
  4648 1392-16-363     16    363.0       2419.    
     MULTIPLE LAYERS AND PROPORTIONS :    1, 0.57       2, 0.43
  4649 1397-22-80      22    80.00       2377.    
     MULTIPLE LAYERS AND PROPORTIONS :    1, 0.60       2, 0.40
  4650 1397-42-355     42    355.0       2303.    
     MULTIPLE LAYERS AND PROPORTIONS :    1, 0.60       2, 0.40
  4651 1397-48-355     48    355.0       2297.    
     MULTIPLE LAYERS AND PROPORTIONS :    1, 0.60       2, 0.40
  4652 1397-55-361     55    361.0       2287.    
     MULTIPLE LAYERS AND PROPORTIONS :    1, 0.60       2, 0.40
  4653 1397-61-14      61    14.00       2271.    
     MULTIPLE LAYERS AND PROPORTIONS :    1, 0.60       2, 0.40
  4654 1397-66-12      66    12.00       2261.    
     MULTIPLE LAYERS AND PROPORTIONS :    1, 0.60       2, 0.40
  4655 1397-71-68      71    68.00       2263.    
     MULTIPLE LAYERS AND PROPORTIONS :    1, 0.60       2, 0.40
  4656 1397-71-365     71    365.0       2262.    
     MULTIPLE LAYERS AND PROPORTIONS :    1, 0.60       2, 0.40
  4657 1426-12-95      12    95.00       2393.    
     MULTIPLE LAYERS AND PROPORTIONS :    1, 0.10       2, 0.90
  4658 1426-17-82      17    82.00       2374.    
     MULTIPLE LAYERS AND PROPORTIONS :    1, 0.10       2, 0.90
  4659 1426-22-80      22    80.00       2353.    
     MULTIPLE LAYERS AND PROPORTIONS :    1, 0.10       2, 0.90
  4660 1426-26-288     26    288.0       2333.    
     MULTIPLE LAYERS AND PROPORTIONS :    1, 0.10       2, 0.90
  4661 1426-42-356     42    356.0       2289.    
     MULTIPLE LAYERS AND PROPORTIONS :    1, 0.10       2, 0.90
  4662 1426-48-355     48    355.0       2280.    
     MULTIPLE LAYERS AND PROPORTIONS :    1, 0.10       2, 0.90
  4663 1426-55-350     55    350.0       2272.    
     MULTIPLE LAYERS AND PROPORTIONS :    1, 0.10       2, 0.90
  4664 1426-61-13      61    13.00       2254.    
     MULTIPLE LAYERS AND PROPORTIONS :    1, 0.10       2, 0.90
  4665 1426-66-12      66    12.00       2248.    
     MULTIPLE LAYERS AND PROPORTIONS :    1, 0.10       2, 0.90
  4666 1426-71-54      71    54.00       2251.    
     MULTIPLE LAYERS AND PROPORTIONS :    1, 0.10       2, 0.90
  4667 1426-71-365     71    365.0       2251.    
     MULTIPLE LAYERS AND PROPORTIONS :    1, 0.10       2, 0.90
  4668 1411-56-25      56    25.00       2327.    
  4669 1411-61-42      61    42.00       2256.    
  4670 1411-66-12      66    12.00       2261.    
  4671 1411-71-54      71    54.00       2264.    
  4672 1411-71-365     71    365.0       2265.    
  4673 1409-61-42      61    42.00       2252.    
     MULTIPLE LAYERS AND PROPORTIONS :    1, 0.97       2, 0.03
  4674 1409-66-12      66    12.00       2255.    
     MULTIPLE LAYERS AND PROPORTIONS :    1, 0.97       2, 0.03
  4675 1409-71-54      71    54.00       2259.    
     MULTIPLE LAYERS AND PROPORTIONS :    1, 0.97       2, 0.03
  4676 1409-71-365     71    365.0       2259.    
     MULTIPLE LAYERS AND PROPORTIONS :    1, 0.97       2, 0.03
  4677 1390-71-68      71    68.00       2273.    
     MULTIPLE LAYERS AND PROPORTIONS :    1, 0.42       2, 0.58
  4678 1390-71-362     71    362.0       2274.    
     MULTIPLE LAYERS AND PROPORTIONS :    1, 0.42       2, 0.58
  4679 1416-71-1       71    1.000       2345.    
     MULTIPLE LAYERS AND PROPORTIONS :    1, 0.72       2, 0.28
  4680 1372-66-5       66    5.000       2260.    
  4681 1372-71-68      71    68.00       2266.    
  4682 1372-71-362     71    362.0       2267.    
  4683 1312-12-265     12    265.0       2428.    
  4684 1332-71-13      71    13.00       2268.    
  4685 1332-71-362     71    362.0       2269.    
  4686 1359-32-69      32    69.00       2369.    
     MULTIPLE LAYERS AND PROPORTIONS :    1, 0.54       2, 0.46
  4687 1359-37-95      37    95.00       2357.    
     MULTIPLE LAYERS AND PROPORTIONS :    1, 0.54       2, 0.46
  4688 1359-42-356     42    356.0       2342.    
     MULTIPLE LAYERS AND PROPORTIONS :    1, 0.54       2, 0.46
  4689 1359-48-334     48    334.0       2340.    
     MULTIPLE LAYERS AND PROPORTIONS :    1, 0.54       2, 0.46
  4690 1359-56-19      56    19.00       2336.    
     MULTIPLE LAYERS AND PROPORTIONS :    1, 0.54       2, 0.46
  4691 1359-60-321     60    321.0       2328.    
     MULTIPLE LAYERS AND PROPORTIONS :    1, 0.54       2, 0.46
  4692 1359-65-298     65    298.0       2316.    
     MULTIPLE LAYERS AND PROPORTIONS :    1, 0.54       2, 0.46
  4693 1359-71-14      71    14.00       2311.    
     MULTIPLE LAYERS AND PROPORTIONS :    1, 0.54       2, 0.46
  4694 1359-71-365     71    365.0       2310.    
     MULTIPLE LAYERS AND PROPORTIONS :    1, 0.54       2, 0.46
  4695 1333-7-28        7    28.00       2444.    
     MULTIPLE LAYERS AND PROPORTIONS :    1, 0.51       2, 0.49
  4696 1333-12-95      12    95.00       2441.    
     MULTIPLE LAYERS AND PROPORTIONS :    1, 0.51       2, 0.49
  4697 1333-17-87      17    87.00       2429.    
     MULTIPLE LAYERS AND PROPORTIONS :    1, 0.51       2, 0.49
  4698 1333-32-69      32    69.00       2376.    
     MULTIPLE LAYERS AND PROPORTIONS :    1, 0.51       2, 0.49
  4699 1333-56-19      56    19.00       2338.    
  4700 1333-61-60      61    60.00       2326.    
  4701 1333-66-25      66    25.00       2318.    
  4702 1355-32-69      32    69.00       2393.    
  4703 1355-37-95      37    95.00       2380.    
  4704 1355-42-356     42    356.0       2364.    
  4705 1355-48-344     48    344.0       2361.    
  4706 1355-56-19      56    19.00       2358.    
  4707 1355-61-60      61    60.00       2344.    
  4708 1355-66-25      66    25.00       2340.    
  4709 1355-71-40      71    40.00       2336.    
  4710 1295-32-69      32    69.00       2390.    
  4711 1295-37-95      37    95.00       2371.    
  4712 1295-42-355     42    355.0       2349.    
  4713 1295-56-19      56    19.00       2349.    
  4714 1295-61-60      61    60.00       2339.    
  4715 1289-48-344     48    344.0       2368.    
  4716 1289-56-20      56    20.00       2364.    
  4717 1289-61-60      61    60.00       2350.    
  4718 1289-66-25      66    25.00       2344.    
  4719 1289-71-40      71    40.00       2343.    
  4720 1856-33-79      33    79.00       2578.    
  4721 1866-42-356     42    356.0       2576.    
  4722 1866-48-348     48    348.0       2579.    
  4723 1866-55-347     55    347.0       2585.    
  4724 1866-60-356     60    356.0       2566.    
  4725 1866-66-5       66    5.000       2562.    
     MULTIPLE LAYERS AND PROPORTIONS :    1, 0.49       2, 0.51
  4726 1866-71-39      71    39.00       2575.    
     MULTIPLE LAYERS AND PROPORTIONS :    1, 0.49       2, 0.51
  4727 1866-71-41      71    41.00       2576.    
     MULTIPLE LAYERS AND PROPORTIONS :    1, 0.49       2, 0.51
  4728 1866-71-365     71    365.0       2573.    
     MULTIPLE LAYERS AND PROPORTIONS :    1, 0.49       2, 0.51
  4729 1859-55-347     55    347.0       2584.    
  4730 1859-66-33      66    33.00       2569.    
     MULTIPLE LAYERS AND PROPORTIONS :    1, 0.48       2, 0.52
  4731 1860-42-356     42    356.0       2576.    
  4732 1860-48-348     48    348.0       2583.    
  4733 1860-56-5       56    5.000       2587.    
  4734 1860-66-5       66    5.000       2561.    
  4735 1860-71-365     71    365.0       2572.    
  4736 1867-66-5       66    5.000       2564.    
  4737 1867-71-365     71    365.0       2574.    
  4738 1855-66-5       66    5.000       2562.    
  4739 1855-71-365     71    365.0       2571.    
  4740 1876-42-362     42    362.0       2512.    
  4741 1876-48-338     48    338.0       2505.    
  4742 1876-56-16      56    16.00       2507.    
  4743 1750-56-16      56    16.00       2540.    
  4744 1750-61-53      61    53.00       2526.    
  4745 1750-66-27      66    27.00       2459.    
  4746 1730-56-16      56    16.00       2519.    
  4747 1730-61-53      61    53.00       2488.    
  4748 1730-66-31      66    31.00       2447.    
  4749 1835-22-32      22    32.00       2566.    
  4750 1835-27-12      27    12.00       2578.    
  4751 1831-1-365       1    365.0       2572.    
 Observation within a steady-state time step has been moved to the end of the time step.
  4752 1801-22-32      22    32.00       2571.    
  4753 1801-27-12      27    12.00       2578.    
  4754 1739-56-16      56    16.00       2543.    
  4755 1739-61-53      61    53.00       2512.    
  4756 1739-66-27      66    27.00       2470.    
  4757 1725-66-12      66    12.00       2427.    
  4758 1725-71-365     71    365.0       2444.    
  4759 1761-27-17      27    17.00       2560.    
  4760 1761-32-60      32    60.00       2546.    
  4761 1761-42-355     42    355.0       2538.    
  4762 1761-48-350     48    350.0       2547.    
  4763 1761-56-6       56    6.000       2565.    
  4764 1761-66-1       66    1.000       2523.    
  4765 1761-71-35      71    35.00       2531.    
  4766 1761-71-365     71    365.0       2527.    
  4767 1774-48-365     48    365.0       2512.    
     MULTIPLE LAYERS AND PROPORTIONS :    2, 0.68       3, 0.32
  4768 1774-56-5       56    5.000       2517.    
     MULTIPLE LAYERS AND PROPORTIONS :    2, 0.68       3, 0.32
  4769 1774-66-1       66    1.000       2441.    
     MULTIPLE LAYERS AND PROPORTIONS :    2, 0.68       3, 0.32
  4770 1774-71-35      71    35.00       2455.    
     MULTIPLE LAYERS AND PROPORTIONS :    2, 0.68       3, 0.32
  4771 1774-71-365     71    365.0       2470.    
     MULTIPLE LAYERS AND PROPORTIONS :    2, 0.68       3, 0.32
  4772 1740-1-365       1    365.0       2556.    
 Observation within a steady-state time step has been moved to the end of the time step.
  4773 1740-16-356     16    356.0       2564.    
  4774 1853-42-357     42    357.0       2500.    
     MULTIPLE LAYERS AND PROPORTIONS :    1, 0.75       2, 0.25
  4775 1850-48-338     48    338.0       2494.    
  4776 1850-56-16      56    16.00       2506.    
  4777 1850-66-31      66    31.00       2432.    
  4778 1850-71-40      71    40.00       2432.    
  4779 1895-16-362     16    362.0       2491.    
  4780 1895-22-32      22    32.00       2496.    
  4781 1895-27-12      27    12.00       2495.    
  4782 1737-43-32      43    32.00       2452.    
  4783 1737-48-355     48    355.0       2449.    
  4784 1737-56-5       56    5.000       2450.    
  4785 1737-61-26      61    26.00       2416.    
  4786 1737-66-28      66    28.00       2390.    
  4787 1737-71-35      71    35.00       2403.    
  4788 1737-71-365     71    365.0       2410.    
  4789 1802-1-276       1    276.0       2517.    
 Observation within a steady-state time step has been moved to the end of the time step.
  4790 1802-4-104       4    104.0       2524.    
  4791 1746-42-355     42    355.0       2492.    
  4792 1746-48-355     48    355.0       2485.    
  4793 1746-56-11      56    11.00       2478.    
  4794 1746-61-33      61    33.00       2448.    
  4795 1746-66-28      66    28.00       2423.    
  4796 1746-71-33      71    33.00       2429.    
  4797 1746-71-344     71    344.0       2436.    
  4798 1940-42-355     42    355.0       2460.    
     MULTIPLE LAYERS AND PROPORTIONS :    1, 0.24       2, 0.76
  4799 1940-48-355     48    355.0       2452.    
     MULTIPLE LAYERS AND PROPORTIONS :    1, 0.24       2, 0.76
  4800 1940-56-5       56    5.000       2458.    
     MULTIPLE LAYERS AND PROPORTIONS :    1, 0.24       2, 0.76
  4801 1940-66-1       66    1.000       2399.    
     MULTIPLE LAYERS AND PROPORTIONS :    1, 0.24       2, 0.76
  4802 1940-71-35      71    35.00       2414.    
     MULTIPLE LAYERS AND PROPORTIONS :    1, 0.24       2, 0.76
  4803 1940-71-365     71    365.0       2425.    
     MULTIPLE LAYERS AND PROPORTIONS :    1, 0.24       2, 0.76
  4804 1925-48-355     48    355.0       2454.    
  4805 1925-56-5       56    5.000       2452.    
  4806 1925-61-26      61    26.00       2430.    
  4807 1925-66-32      66    32.00       2401.    
  4808 1925-71-35      71    35.00       2415.    
  4809 1925-71-365     71    365.0       2425.    
  4810 1733-2-93        2    93.00       2454.    
  4811 1732-12-114     12    114.0       2492.    
  4812 1732-16-362     16    362.0       2487.    
  4813 1732-27-90      27    90.00       2488.    
  4814 1732-32-60      32    60.00       2477.    
  4815 1732-42-357     42    357.0       2451.    
  4816 1732-48-341     48    341.0       2442.    
  4817 1732-56-16      56    16.00       2442.    
  4818 1809-48-355     48    355.0       2456.    
  4819 1809-55-346     55    346.0       2445.    
  4820 1809-60-364     60    364.0       2416.    
  4821 1809-66-28      66    28.00       2392.    
  4822 1809-71-39      71    39.00       2404.    
  4823 1809-71-365     71    365.0       2410.    
  4824 1731-56-5       56    5.000       2444.    
  4825 1731-60-351     60    351.0       2411.    
  4826 1731-65-364     65    364.0       2388.    
  4827 1731-71-35      71    35.00       2402.    
  4828 1731-71-365     71    365.0       2409.    
  4829 1915-56-13      56    13.00       2454.    
  4830 1915-60-351     60    351.0       2434.    
  4831 1915-66-32      66    32.00       2406.    
  4832 1915-71-55      71    55.00       2421.    
  4833 1915-71-365     71    365.0       2430.    
  4834 1869-1-365       1    365.0       2488.    
 Observation within a steady-state time step has been moved to the end of the time step.
  4835 1884-1-52        1    52.00       2488.    
 Observation within a steady-state time step has been moved to the end of the time step.
  4836 1910-66-32      66    32.00       2249.    
  4837 1910-71-365     71    365.0       2261.    
  4838 1887-66-32      66    32.00       2240.    
  4839 1887-71-365     71    365.0       2251.    
  4840 1854-66-48      66    48.00       2237.    
  4841 1885-7-322       7    322.0       2430.    
  4842 1885-12-116     12    116.0       2429.    
  4843 1790-66-48      66    48.00       2237.    
  4844 1836-66-48      66    48.00       2246.    
  4845 1783-66-48      66    48.00       2233.    
  4846 1846-48-355     48    355.0       2447.    
  4847 1846-55-327     55    327.0       2443.    
  4848 1846-61-14      61    14.00       2423.    
  4849 1846-66-48      66    48.00       2393.    
  4850 1846-71-365     71    365.0       2419.    
  4851 1845-48-355     48    355.0       2280.    
  4852 1845-55-360     55    360.0       2260.    
  4853 1845-61-11      61    11.00       2236.    
  4854 1845-66-32      66    32.00       2236.    
  4855 1845-71-365     71    365.0       2248.    
  4856 1916-56-5       56    5.000       2280.    
     MULTIPLE LAYERS AND PROPORTIONS :    1, 0.21       2, 0.79
  4857 1916-66-32      66    32.00       2252.    
     MULTIPLE LAYERS AND PROPORTIONS :    1, 0.21       2, 0.79
  4858 1916-71-365     71    365.0       2266.    
     MULTIPLE LAYERS AND PROPORTIONS :    1, 0.21       2, 0.79
  4859 1911-56-5       56    5.000       2277.    
  4860 1911-66-32      66    32.00       2249.    
  4861 1911-71-365     71    365.0       2265.    
  4862 1897-12-114     12    114.0       2444.    
  4863 1897-27-10      27    10.00       2398.    
  4864 1893-66-32      66    32.00       2242.    
  4865 1893-71-365     71    365.0       2255.    
  4866 1917-48-355     48    355.0       2276.    
  4867 1917-66-32      66    32.00       2225.    
  4868 1917-71-344     71    344.0       2242.    
  4869 1672-66-45      66    45.00       2225.    
  4870 1647-12-332     12    332.0       2378.    
  4871 1647-16-355     16    355.0       2370.    
  4872 1659-22-81      22    81.00       2389.    
     MULTIPLE LAYERS AND PROPORTIONS :    1, 0.55       2, 0.45
  4873 1659-42-356     42    356.0       2300.    
     MULTIPLE LAYERS AND PROPORTIONS :    1, 0.55       2, 0.45
  4874 1659-48-355     48    355.0       2266.    
  4875 1659-56-6       56    6.000       2251.    
  4876 1659-60-354     60    354.0       2231.    
  4877 1659-66-45      66    45.00       2228.    
     MULTIPLE LAYERS AND PROPORTIONS :    1, 0.55       2, 0.45
  4878 1659-71-365     71    365.0       2239.    
     MULTIPLE LAYERS AND PROPORTIONS :    1, 0.55       2, 0.45
  4879 1682-48-355     48    355.0       2254.    
  4880 1707-42-355     42    355.0       2288.    
  4881 1707-48-355     48    355.0       2254.    
  4882 1707-56-26      56    26.00       2242.    
  4883 1707-60-354     60    354.0       2220.    
  4884 1707-66-45      66    45.00       2218.    
  4885 1707-71-365     71    365.0       2230.    
  4886 1712-42-355     42    355.0       2287.    
  4887 1712-48-355     48    355.0       2252.    
  4888 1712-56-5       56    5.000       2241.    
  4889 1712-61-14      61    14.00       2219.    
  4890 1712-65-355     65    355.0       2216.    
  4891 1712-71-67      71    67.00       2227.    
  4892 1712-71-365     71    365.0       2230.    
  4893 1671-22-79      22    79.00       2383.    
     MULTIPLE LAYERS AND PROPORTIONS :    1, 0.72       2, 0.28
  4894 1671-42-355     42    355.0       2291.    
  4895 1671-48-355     48    355.0       2257.    
  4896 1671-56-20      56    20.00       2242.    
  4897 1627-22-82      22    82.00       2391.    
  4898 1627-32-90      32    90.00       2353.    
  4899 1627-37-90      37    90.00       2326.    
  4900 1627-42-356     42    356.0       2305.    
  4901 1627-48-350     48    350.0       2268.    
  4902 1627-55-360     55    360.0       2254.    
  4903 1627-61-12      61    12.00       2234.    
  4904 1627-66-1       66    1.000       2232.    
  4905 1627-71-53      71    53.00       2240.    
  4906 1627-71-365     71    365.0       2243.    
  4907 1607-1-276       1    276.0       2426.    
 Observation within a steady-state time step has been moved to the end of the time step.
     MULTIPLE LAYERS AND PROPORTIONS :    1, 0.88       2, 0.12
  4908 1607-6-269       6    269.0       2424.    
     MULTIPLE LAYERS AND PROPORTIONS :    1, 0.88       2, 0.12
  4909 1607-11-269     11    269.0       2418.    
     MULTIPLE LAYERS AND PROPORTIONS :    1, 0.88       2, 0.12
  4910 1598-66-45      66    45.00       2231.    
  4911 1643-27-90      27    90.00       2380.    
     MULTIPLE LAYERS AND PROPORTIONS :    1, 0.19       2, 0.81
  4912 1632-22-82      22    82.00       2403.    
  4913 1632-27-15      27    15.00       2382.    
  4914 1632-32-77      32    77.00       2361.    
  4915 1632-42-356     42    356.0       2316.    
  4916 1632-48-355     48    355.0       2282.    
  4917 1632-56-6       56    6.000       2266.    
  4918 1632-60-354     60    354.0       2245.    
  4919 1632-66-48      66    48.00       2242.    
  4920 1632-71-53      71    53.00       2250.    
  4921 1632-71-365     71    365.0       2253.    
  4922 1677-32-64      32    64.00       2477.    
  4923 1677-42-355     42    355.0       2451.    
  4924 1677-48-351     48    351.0       2439.    
  4925 1677-56-5       56    5.000       2443.    
  4926 1677-61-26      61    26.00       2407.    
  4927 1677-66-39      66    39.00       2386.    
  4928 1677-71-35      71    35.00       2403.    
  4929 1677-71-365     71    365.0       2408.    
  4930 1646-27-90      27    90.00       2489.    
  4931 1646-32-64      32    64.00       2482.    
  4932 1646-42-355     42    355.0       2446.    
  4933 1646-48-350     48    350.0       2434.    
  4934 1646-56-5       56    5.000       2437.    
  4935 1646-61-26      61    26.00       2402.    
  4936 1646-66-39      66    39.00       2382.    
  4937 1646-71-39      71    39.00       2400.    
  4938 1646-71-365     71    365.0       2406.    
  4939 1602-42-355     42    355.0       2336.    
  4940 1602-48-350     48    350.0       2264.    
  4941 1602-71-35      71    35.00       2252.    
  4942 1602-71-365     71    365.0       2254.    
  4943 1601-42-355     42    355.0       2335.    
     MULTIPLE LAYERS AND PROPORTIONS :    2, 0.90       3, 0.10
  4944 1601-48-350     48    350.0       2261.    
     MULTIPLE LAYERS AND PROPORTIONS :    2, 0.90       3, 0.10
  4945 1601-55-348     55    348.0       2268.    
     MULTIPLE LAYERS AND PROPORTIONS :    2, 0.90       3, 0.10
  4946 1601-61-14      61    14.00       2211.    
     MULTIPLE LAYERS AND PROPORTIONS :    2, 0.90       3, 0.10
  4947 1601-66-19      66    19.00       2208.    
     MULTIPLE LAYERS AND PROPORTIONS :    2, 0.90       3, 0.10
  4948 1601-71-35      71    35.00       2254.    
     MULTIPLE LAYERS AND PROPORTIONS :    2, 0.90       3, 0.10
  4949 1601-71-365     71    365.0       2255.    
  4950 1674-10-253     10    253.0       2532.    
  4951 1676-42-355     42    355.0       2484.    
  4952 1676-48-350     48    350.0       2487.    
  4953 1676-55-349     55    349.0       2473.    
  4954 1676-61-27      61    27.00       2442.    
  4955 1676-66-19      66    19.00       2415.    
  4956 1676-71-35      71    35.00       2419.    
  4957 1676-71-365     71    365.0       2429.    
  4958 1645-32-77      32    77.00       2486.    
  4959 1645-42-355     42    355.0       2454.    
  4960 1645-55-360     55    360.0       2447.    
  4961 1645-60-356     60    356.0       2411.    
  4962 1645-66-1       66    1.000       2384.    
  4963 1645-71-35      71    35.00       2400.    
  4964 1645-71-365     71    365.0       2406.    
  4965 1604-32-77      32    77.00       2471.    
  4966 1604-42-355     42    355.0       2439.    
  4967 1604-48-350     48    350.0       2422.    
  4968 1604-55-360     55    360.0       2425.    
  4969 1604-60-362     60    362.0       2397.    
  4970 1604-71-48      71    48.00       2392.    
  4971 1604-71-365     71    365.0       2295.    
  4972 1640-55-360     55    360.0       2486.    
     MULTIPLE LAYERS AND PROPORTIONS :    2, 0.86       3, 0.14
  4973 1640-60-356     60    356.0       2455.    
     MULTIPLE LAYERS AND PROPORTIONS :    2, 0.86       3, 0.14
  4974 1640-66-19      66    19.00       2415.    
     MULTIPLE LAYERS AND PROPORTIONS :    2, 0.86       3, 0.14
  4975 1640-71-22      71    22.00       2426.    
     MULTIPLE LAYERS AND PROPORTIONS :    2, 0.86       3, 0.14
  4976 1640-71-365     71    365.0       2433.    
     MULTIPLE LAYERS AND PROPORTIONS :    2, 0.86       3, 0.14
  4977 1720-66-5       66    5.000       2502.    
  4978 1720-71-22      71    22.00       2498.    
  4979 1720-71-365     71    365.0       2505.    
  4980 1706-33-318     33    318.0       2550.    
  4981 1669-7-32        7    32.00       2537.    
  4982 1669-12-106     12    106.0       2531.    
  4983 1669-32-68      32    68.00       2527.    
  4984 1669-38-60      38    60.00       2519.    
  4985 1669-42-354     42    354.0       2509.    
  4986 1622-32-68      32    68.00       2527.    
  4987 1622-38-60      38    60.00       2519.    
  4988 1622-42-354     42    354.0       2506.    
  4989 1622-48-341     48    341.0       2497.    
  4990 1622-56-17      56    17.00       2489.    
  4991 1622-61-54      61    54.00       2461.    
  4992 1622-66-32      66    32.00       2420.    
  4993 1556-61-27      61    27.00       2456.    
     MULTIPLE LAYERS AND PROPORTIONS :    2, 0.54       3, 0.46
  4994 1556-66-5       66    5.000       2432.    
     MULTIPLE LAYERS AND PROPORTIONS :    2, 0.54       3, 0.46
  4995 1556-71-22      71    22.00       2436.    
     MULTIPLE LAYERS AND PROPORTIONS :    2, 0.54       3, 0.46
  4996 1556-71-365     71    365.0       2439.    
     MULTIPLE LAYERS AND PROPORTIONS :    2, 0.54       3, 0.46
  4997 1553-7-336       7    336.0       2538.    
  4998 1553-12-106     12    106.0       2533.    
  4999 1553-42-354     42    354.0       2503.    
  5000 1553-48-341     48    341.0       2490.    
  5001 1568-33-234     33    234.0       2528.    
  5002 1568-48-341     48    341.0       2497.    
  5003 1594-71-22      71    22.00       2425.    
  5004 1594-71-365     71    365.0       2432.    
  5005 1563-32-68      32    68.00       2526.    
  5006 1563-37-48      37    48.00       2507.    
  5007 1563-42-355     42    355.0       2500.    
  5008 1563-48-348     48    348.0       2488.    
  5009 1563-56-6       56    6.000       2480.    
  5010 1553-15-99      15    99.00       2533.    
  5011 1522-42-355     42    355.0       2506.    
  5012 1522-48-348     48    348.0       2488.    
  5013 1527-55-354     55    354.0       2475.    
     MULTIPLE LAYERS AND PROPORTIONS :    2, 0.71       3, 0.29
  5014 1527-61-54      61    54.00       2451.    
     MULTIPLE LAYERS AND PROPORTIONS :    2, 0.71       3, 0.29
  5015 1527-66-32      66    32.00       2420.    
     MULTIPLE LAYERS AND PROPORTIONS :    2, 0.71       3, 0.29
  5016 1527-71-22      71    22.00       2426.    
     MULTIPLE LAYERS AND PROPORTIONS :    2, 0.71       3, 0.29
  5017 1527-71-365     71    365.0       2430.    
  5018 1589-42-355     42    355.0       2468.    
  5019 1589-48-350     48    350.0       2453.    
  5020 1589-55-360     55    360.0       2454.    
  5021 1589-61-14      61    14.00       2417.    
  5022 1589-66-32      66    32.00       2394.    
  5023 1589-71-22      71    22.00       2404.    
  5024 1589-71-365     71    365.0       2408.    
  5025 1586-32-68      32    68.00       2475.    
  5026 1586-48-356     48    356.0       2414.    
  5027 1586-56-6       56    6.000       2423.    
  5028 1586-60-356     60    356.0       2377.    
  5029 1586-66-1       66    1.000       2371.    
  5030 1586-71-35      71    35.00       2390.    
  5031 1586-71-365     71    365.0       2393.    
  5032 1532-42-355     42    355.0       2430.    
  5033 1532-48-348     48    348.0       2407.    
  5034 1532-55-354     55    354.0       2420.    
  5035 1532-61-28      61    28.00       2365.    
  5036 1532-66-46      66    46.00       2371.    
  5037 1532-71-22      71    22.00       2384.    
  5038 1532-71-365     71    365.0       2386.    
  5039 1534-42-355     42    355.0       2432.    
  5040 1534-48-348     48    348.0       2408.    
  5041 1534-55-360     55    360.0       2413.    
  5042 1534-61-5       61    5.000       2374.    
  5043 1534-66-46      66    46.00       2373.    
  5044 1534-71-35      71    35.00       2386.    
  5045 1534-71-365     71    365.0       2388.    
  5046 1524-42-355     42    355.0       2467.    
  5047 1524-48-348     48    348.0       2449.    
  5048 1524-56-6       56    6.000       2450.    
  5049 1524-60-356     60    356.0       2418.    
  5050 1524-66-1       66    1.000       2399.    
  5051 1524-71-48      71    48.00       2406.    
  5052 1524-71-365     71    365.0       2408.    
  5053 1561-21-340     21    340.0       2488.    
  5054 1561-32-64      32    64.00       2474.    
  5055 1561-42-355     42    355.0       2435.    
  5056 1561-48-350     48    350.0       2413.    
  5057 1561-55-360     55    360.0       2415.    
  5058 1561-61-26      61    26.00       2375.    
  5059 1561-66-46      66    46.00       2370.    
  5060 1561-71-39      71    39.00       2389.    
  5061 1561-71-365     71    365.0       2389.    
  5062 1571-2-94        2    94.00       2432.    
  5063 1572-48-356     48    356.0       2300.    
  5064 1572-56-6       56    6.000       2274.    
  5065 1572-61-26      61    26.00       2244.    
  5066 1572-66-12      66    12.00       2245.    
  5067 1572-71-48      71    48.00       2258.    
  5068 1572-71-365     71    365.0       2261.    
  5069 1549-21-319     21    319.0       2437.    
  5070 1549-56-6       56    6.000       2281.    
  5071 1549-60-356     60    356.0       2224.    
  5072 1549-65-350     65    350.0       2214.    
  5073 1549-71-67      71    67.00       2262.    
  5074 1549-71-365     71    365.0       2261.    
  5075 1547-27-62      27    62.00       2388.    
  5076 1521-42-355     42    355.0       2372.    
  5077 1521-48-350     48    350.0       2352.    
  5078 1521-55-360     55    360.0       2338.    
  5079 1521-60-356     60    356.0       2321.    
  5080 1521-66-46      66    46.00       2311.    
  5081 1521-71-48      71    48.00       2316.    
  5082 1521-71-365     71    365.0       2317.    
  5083 1573-48-356     48    356.0       2281.    
  5084 1573-55-360     55    360.0       2268.    
  5085 1573-60-357     60    357.0       2244.    
  5086 1573-66-54      66    54.00       2243.    
  5087 1573-71-19      71    19.00       2248.    
  5088 1573-71-365     71    365.0       2252.    
  5089 1545-32-77      32    77.00       2351.    
     MULTIPLE LAYERS AND PROPORTIONS :    1, 0.32       2, 0.68
  5090 1545-42-356     42    356.0       2319.    
  5091 1545-48-350     48    350.0       2289.    
  5092 1545-56-11      56    11.00       2270.    
  5093 1545-61-14      61    14.00       2247.    
  5094 1545-66-54      66    54.00       2248.    
  5095 1545-71-19      71    19.00       2254.    
  5096 1545-71-365     71    365.0       2257.    
  5097 1535-42-356     42    356.0       2320.    
  5098 1535-48-350     48    350.0       2292.    
  5099 1535-56-11      56    11.00       2272.    
  5100 1535-60-357     60    357.0       2251.    
  5101 1535-66-47      66    47.00       2250.    
  5102 1535-71-19      71    19.00       2256.    
  5103 1535-71-365     71    365.0       2259.    
  5104 1507-42-356     42    356.0       2326.    
  5105 1507-48-350     48    350.0       2302.    
  5106 1507-56-11      56    11.00       2271.    
  5107 1507-60-357     60    357.0       2251.    
  5108 1507-66-54      66    54.00       2262.    
  5109 1507-71-19      71    19.00       2264.    
  5110 1507-71-365     71    365.0       2267.    
  5111 1523-16-54      16    54.00       2421.    
     MULTIPLE LAYERS AND PROPORTIONS :    1, 0.70       2, 0.30
  5112 1575-22-81      22    81.00       2393.    
  5113 1575-32-77      32    77.00       2347.    
  5114 1575-42-356     42    356.0       2309.    
  5115 1575-48-350     48    350.0       2282.    
  5116 1575-55-343     55    343.0       2259.    
  5117 1575-61-11      61    11.00       2235.    
  5118 1575-71-365     71    365.0       2245.    
  5119 1577-22-81      22    81.00       2388.    
     MULTIPLE LAYERS AND PROPORTIONS :    1, 0.51       2, 0.49
  5120 1580-42-355     42    355.0       2298.    
  5121 1580-48-355     48    355.0       2264.    
  5122 1580-56-13      56    13.00       2247.    
  5123 1580-61-12      61    12.00       2227.    
  5124 1580-66-54      66    54.00       2229.    
  5125 1580-71-365     71    365.0       2239.    
  5126 1536-17-79      17    79.00       2407.    
  5127 1536-22-82      22    82.00       2382.    
  5128 1536-32-77      32    77.00       2338.    
  5129 1536-42-356     42    356.0       2301.    
  5130 1536-48-350     48    350.0       2273.    
  5131 1536-55-340     55    340.0       2255.    
  5132 1536-66-54      66    54.00       2231.    
  5133 1536-71-365     71    365.0       2239.    
  5134 1516-42-356     42    356.0       2308.    
  5135 1516-48-350     48    350.0       2286.    
  5136 1516-56-11      56    11.00       2261.    
  5137 1516-61-27      61    27.00       2234.    
  5138 1516-66-54      66    54.00       2242.    
  5139 1516-71-365     71    365.0       2249.    
  5140 1528-22-82      22    82.00       2382.    
  5141 1528-27-63      27    63.00       2368.    
  5142 1528-32-77      32    77.00       2344.    
  5143 1528-65-350     65    350.0       2242.    
  5144 1528-71-365     71    365.0       2251.    
  5145 1514-42-356     42    356.0       2309.    
  5146 1514-48-350     48    350.0       2287.    
  5147 1514-55-340     55    340.0       2267.    
  5148 1514-61-27      61    27.00       2237.    
  5149 1514-66-54      66    54.00       2245.    
  5150 1514-71-48      71    48.00       2248.    
  5151 1514-71-365     71    365.0       2252.    
  5152 1495-42-356     42    356.0       2327.    
  5153 1495-48-350     48    350.0       2304.    
  5154 1495-55-343     55    343.0       2283.    
  5155 1495-61-41      61    41.00       2259.    
  5156 1495-66-54      66    54.00       2265.    
  5157 1495-71-19      71    19.00       2266.    
  5158 1495-71-365     71    365.0       2269.    
  5159 1484-37-343     37    343.0       2324.    
  5160 1484-42-356     42    356.0       2322.    
  5161 1484-56-11      56    11.00       2270.    
  5162 1484-60-357     60    357.0       2250.    
  5163 1484-66-53      66    53.00       2257.    
  5164 1484-71-19      71    19.00       2258.    
  5165 1484-71-365     71    365.0       2265.    
  5166 1463-56-34      56    34.00       2297.    
  5167 1463-60-357     60    357.0       2276.    
  5168 1463-66-53      66    53.00       2277.    
  5169 1463-71-19      71    19.00       2276.    
  5170 1463-71-365     71    365.0       2278.    
  5171 1483-42-355     42    355.0       2409.    
  5172 1483-48-348     48    348.0       2395.    
  5173 1483-56-6       56    6.000       2382.    
  5174 1483-60-357     60    357.0       2365.    
  5175 1483-66-46      66    46.00       2356.    
  5176 1483-71-35      71    35.00       2356.    
  5177 1483-71-365     71    365.0       2356.    
  5178 1437-16-300     16    300.0       2470.    
     MULTIPLE LAYERS AND PROPORTIONS :    1, 0.61       2, 0.39
  5179 1437-22-32      22    32.00       2449.    
     MULTIPLE LAYERS AND PROPORTIONS :    1, 0.61       2, 0.39
  5180 1437-27-12      27    12.00       2454.    
     MULTIPLE LAYERS AND PROPORTIONS :    1, 0.61       2, 0.39
  5181 1438-42-362     42    362.0       2383.    
  5182 1438-56-20      56    20.00       2383.    
  5183 1438-61-53      61    53.00       2377.    
  5184 1438-66-32      66    32.00       2368.    
  5185 1438-71-40      71    40.00       2365.    
  5186 1445-27-76      27    76.00       2457.    
  5187 1445-32-55      32    55.00       2454.    
  5188 1445-42-356     42    356.0       2429.    
  5189 1445-48-348     48    348.0       2419.    
  5190 1445-55-360     55    360.0       2412.    
  5191 1445-60-357     60    357.0       2392.    
  5192 1445-66-1       66    1.000       2384.    
  5193 1445-71-35      71    35.00       2382.    
  5194 1445-71-365     71    365.0       2381.    
  5195 1489-32-63      32    63.00       2477.    
  5196 1489-42-355     42    355.0       2437.    
  5197 1489-48-348     48    348.0       2415.    
  5198 1489-55-353     55    353.0       2411.    
  5199 1489-61-28      61    28.00       2385.    
  5200 1489-66-39      66    39.00       2384.    
  5201 1489-71-22      71    22.00       2387.    
  5202 1489-71-365     71    365.0       2387.    
  5203 1469-42-355     42    355.0       2488.    
  5204 1469-48-348     48    348.0       2462.    
  5205 1469-55-357     55    357.0       2471.    
  5206 1469-61-54      61    54.00       2436.    
  5207 1494-66-46      66    46.00       2436.    
  5208 1469-71-71      71    71.00       2437.    
  5209 1469-71-365     71    365.0       2438.    
  5210 1464-12-102     12    102.0       2539.    
  5211 1464-32-63      32    63.00       2521.    
  5212 1464-42-354     42    354.0       2480.    
  5213 1439-37-90      37    90.00       2487.    
  5214 1439-42-355     42    355.0       2474.    
  5215 1439-48-348     48    348.0       2451.    
  5216 1439-56-6       56    6.000       2453.    
  5217 1439-61-28      61    28.00       2422.    
  5218 1439-66-46      66    46.00       2429.    
  5219 1439-71-71      71    71.00       2424.    
  5220 1439-71-365     71    365.0       2426.    
  5221 1435-42-355     42    355.0       2478.    
  5222 1435-48-348     48    348.0       2456.    
  5223 1435-55-361     55    361.0       2461.    
  5224 1435-61-11      61    11.00       2440.    
  5225 1435-66-49      66    49.00       2431.    
  5226 1435-71-71      71    71.00       2426.    
  5227 1435-71-365     71    365.0       2429.    
  5228 1449-37-30      37    30.00       2521.    
     MULTIPLE LAYERS AND PROPORTIONS :    2, 0.16       3, 0.84
  5229 1414-7-138       7    138.0       2553.    
  5230 1414-32-64      32    64.00       2546.    
  5231 1414-38-60      38    60.00       2536.    
  5232 1414-42-354     42    354.0       2520.    
  5233 1379-71-356     71    356.0       2481.    
  5234 1425-2-94        2    94.00       2555.    
  5235 1425-16-359     16    359.0       2546.    
  5236 1425-22-32      22    32.00       2543.    
  5237 1425-27-12      27    12.00       2529.    
  5238 1382-42-355     42    355.0       2493.    
  5239 1382-48-348     48    348.0       2482.    
  5240 1382-56-6       56    6.000       2480.    
  5241 1382-61-54      61    54.00       2469.    
  5242 1382-66-46      66    46.00       2455.    
  5243 1382-71-22      71    22.00       2447.    
  5244 1382-71-365     71    365.0       2447.    
  5245 1413-32-64      32    64.00       2464.    
     MULTIPLE LAYERS AND PROPORTIONS :    1, 0.19       2, 0.81
  5246 1413-37-48      37    48.00       2451.    
     MULTIPLE LAYERS AND PROPORTIONS :    1, 0.19       2, 0.81
  5247 1413-56-6       56    6.000       2328.    
  5248 1413-61-26      61    26.00       2424.    
  5249 1413-66-53      66    53.00       2410.    
  5250 1413-71-48      71    48.00       2401.    
  5251 1395-32-64      32    64.00       2455.    
  5252 1395-42-355     42    355.0       2427.    
  5253 1395-48-348     48    348.0       2425.    
  5254 1395-56-6       56    6.000       2418.    
  5255 1395-61-26      61    26.00       2413.    
  5256 1395-66-1       66    1.000       2404.    
  5257 1395-71-48      71    48.00       2398.    
  5258 1395-71-365     71    365.0       2396.    
  5259 1377-35-16      35    16.00       2432.    
  5260 1377-42-355     42    355.0       2423.    
  5261 1377-48-348     48    348.0       2420.    
  5262 1377-56-6       56    6.000       2414.    
  5263 1377-61-26      61    26.00       2408.    
  5264 1377-66-53      66    53.00       2401.    
  5265 1377-71-365     71    365.0       2394.    
  5266 1394-42-355     42    355.0       2458.    
  5267 1394-48-348     48    348.0       2453.    
  5268 1394-56-6       56    6.000       2446.    
  5269 1394-61-26      61    26.00       2438.    
  5270 1394-66-53      66    53.00       2427.    
  5271 1394-71-365     71    365.0       2418.    
  5272 1375-32-64      32    64.00       2490.    
  5273 1375-42-355     42    355.0       2474.    
  5274 1375-48-348     48    348.0       2471.    
  5275 1375-56-6       56    6.000       2464.    
  5276 1375-61-26      61    26.00       2457.    
  5277 1375-66-53      66    53.00       2446.    
  5278 1375-71-365     71    365.0       2437.    
  5279 1396-17-90      17    90.00       2452.    
  5280 1396-22-81      22    81.00       2425.    
  5281 1396-32-63      32    63.00       2415.    
  5282 1396-42-355     42    355.0       2389.    
  5283 1396-48-350     48    350.0       2386.    
  5284 1396-56-11      56    11.00       2379.    
  5285 1396-61-26      61    26.00       2365.    
  5286 1396-66-53      66    53.00       2360.    
  5287 1396-71-365     71    365.0       2352.    
  5288 1415-22-82      22    82.00       2419.    
  5289 1415-32-63      32    63.00       2387.    
  5290 1415-37-90      37    90.00       2374.    
  5291 1415-42-355     42    355.0       2364.    
  5292 1415-48-350     48    350.0       2358.    
  5293 1415-56-11      56    11.00       2354.    
  5294 1415-61-27      61    27.00       2338.    
  5295 1415-66-49      66    49.00       2329.    
  5296 1415-71-365     71    365.0       2322.    
  5297 1323-2-88        2    88.00       2488.    
  5298 1368-17-85      17    85.00       2462.    
     MULTIPLE LAYERS AND PROPORTIONS :    1, 0.15       2, 0.85
  5299 1368-22-81      22    81.00       2445.    
     MULTIPLE LAYERS AND PROPORTIONS :    1, 0.15       2, 0.85
  5300 1368-27-15      27    15.00       2436.    
  5301 1368-42-355     42    355.0       2399.    
  5302 1368-55-339     55    339.0       2388.    
  5303 1368-66-49      66    49.00       2374.    
     MULTIPLE LAYERS AND PROPORTIONS :    1, 0.15       2, 0.85
  5304 1368-71-365     71    365.0       2362.    
     MULTIPLE LAYERS AND PROPORTIONS :    1, 0.15       2, 0.85
  5305 1327-71-365     71    365.0       2447.    
  5306 1369-71-365     71    365.0       2420.    
  5307 1326-71-365     71    365.0       2429.    
  5308 1302-71-365     71    365.0       2442.    
  5309 1269-37-48      37    48.00       2533.    
  5310 1269-66-1       66    1.000       2514.    
  5311 1269-71-365     71    365.0       2500.    
  5312 1277-66-59      66    59.00       2516.    
  5313 1330-48-345     48    345.0       2523.    
  5314 1330-56-17      56    17.00       2523.    
  5315 1322-2-94        2    94.00       2574.    
  5316 1331-48-345     48    345.0       2533.    
  5317 1331-56-17      56    17.00       2532.    
  5318 1331-61-54      61    54.00       2528.    
  5319 1331-66-32      66    32.00       2513.    
  5320 1331-71-40      71    40.00       2500.    
  5321 1276-12-99      12    99.00       2565.    
  5322 1276-17-90      17    90.00       2570.    
  5323 1771-33-65      33    65.00       2644.    
  5324 1880-42-356     42    356.0       2637.    
  5325 1880-48-335     48    335.0       2636.    
  5326 1880-61-60      61    60.00       2632.    
  5327 1880-66-25      66    25.00       2633.    
  5328 1735-34-152     34    152.0       2644.    
  5329 1840-16-362     16    362.0       2630.    
  5330 1794-3-36        3    36.00       2640.    
  5331 1794-16-362     16    362.0       2640.    
  5332 1794-27-12      27    12.00       2642.    
  5333 1794-71-39      71    39.00       2640.    
  5334 1794-71-365     71    365.0       2635.    
  5335 1796-16-362     16    362.0       2635.    
  5336 1806-55-348     55    348.0       2639.    
  5337 1806-60-364     60    364.0       2635.    
  5338 1806-66-1       66    1.000       2629.    
  5339 1806-71-39      71    39.00       2638.    
  5340 1806-71-365     71    365.0       2635.    
  5341 1788-55-348     55    348.0       2637.    
  5342 1788-60-364     60    364.0       2632.    
  5343 1788-66-21      66    21.00       2631.    
  5344 1788-71-39      71    39.00       2631.    
  5345 1788-71-365     71    365.0       2633.    
  5346 1782-42-355     42    355.0       2633.    
  5347 1782-48-348     48    348.0       2631.    
  5348 1782-55-348     55    348.0       2635.    
  5349 1782-60-364     60    364.0       2631.    
  5350 1782-66-28      66    28.00       2628.    
  5351 1782-71-39      71    39.00       2628.    
  5352 1782-71-365     71    365.0       2631.    
  5353 1807-66-28      66    28.00       2633.    
  5354 1807-71-39      71    39.00       2634.    
  5355 1807-71-365     71    365.0       2634.    
  5356 1896-55-348     55    348.0       2594.    
  5357 1881-71-39      71    39.00       2601.    
  5358 1881-71-365     71    365.0       2589.    
  5359 1841-1-357       1    357.0       2580.    
 Observation within a steady-state time step has been moved to the end of the time step.
  5360 1773-34-91      34    91.00       2602.    
  5361 1821-48-302     48    302.0       2600.    
  5362 1798-16-362     16    362.0       2587.    
  5363 1797-48-348     48    348.0       2599.    
  5364 1797-55-348     55    348.0       2605.    
  5365 1797-60-354     60    354.0       2596.    
  5366 1797-66-28      66    28.00       2599.    
  5367 1797-71-39      71    39.00       2603.    
  5368 1797-71-365     71    365.0       2602.    
  5369 1789-42-356     42    356.0       2598.    
  5370 1789-55-348     55    348.0       2598.    
  5371 1789-60-364     60    364.0       2591.    
  5372 1789-66-28      66    28.00       2592.    
  5373 1789-71-39      71    39.00       2594.    
  5374 1789-71-365     71    365.0       2596.    
  5375 1780-66-28      66    28.00       2599.    
  5376 1780-71-39      71    39.00       2602.    
  5377 1780-71-365     71    365.0       2604.    
  5378 1799-42-356     42    356.0       2601.    
  5379 1799-48-335     48    335.0       2589.    
  5380 1736-34-152     34    152.0       2616.    
  5381 1613-42-355     42    355.0       2568.    
  5382 1613-48-348     48    348.0       2573.    
  5383 1613-55-348     55    348.0       2537.    
  5384 1613-61-41      61    41.00       2504.    
  5385 1613-66-12      66    12.00       2480.    
  5386 1613-71-22      71    22.00       2473.    
  5387 1613-71-365     71    365.0       2471.    
  5388 1606-55-348     55    348.0       2541.    
  5389 1606-61-41      61    41.00       2508.    
  5390 1606-66-12      66    12.00       2483.    
  5391 1606-71-22      71    22.00       2477.    
  5392 1606-71-365     71    365.0       2475.    
  5393 1620-2-90        2    90.00       2690.    
  5394 1620-12-324     12    324.0       2672.    
  5395 1620-16-362     16    362.0       2671.    
  5396 1705-48-335     48    335.0       2651.    
  5397 1705-56-16      56    16.00       2668.    
  5398 1705-61-60      61    60.00       2643.    
  5399 1705-66-25      66    25.00       2663.    
  5400 1530-48-335     48    335.0       2610.    
  5401 1530-56-16      56    16.00       2698.    
  5402 1530-61-60      61    60.00       2732.    
  5403 1434-37-27      37    27.00       2699.    
  5404 1434-42-356     42    356.0       2704.    
  5405 1434-56-17      56    17.00       2711.    
  5406 1434-60-321     60    321.0       2712.    
  5407 1434-65-298     65    298.0       2716.    
  5408 1434-71-365     71    365.0       2715.    
  5409 1384-48-335     48    335.0       2782.    
  5410 1344-48-348     48    348.0       2732.    
  5411 1344-55-348     55    348.0       2741.    
  5412 1344-61-41      61    41.00       2745.    
  5413 1344-66-5       66    5.000       2740.    
  5414 1344-71-356     71    356.0       2734.    
  5415 1354-2-93        2    93.00       2721.    
  5416 1354-7-52        7    52.00       2719.    
  5417 1354-12-102     12    102.0       2718.    
  5418 1354-17-71      17    71.00       2715.    
  5419 1354-22-32      22    32.00       2708.    
  5420 1354-32-90      32    90.00       2708.    
  5421 1354-38-60      38    60.00       2700.    
  5422 1358-32-90      32    90.00       2708.    
  5423 1358-48-336     48    336.0       2704.    
  5424 846-17-5        17    5.000       2368.    
  5425 846-22-33       22    33.00       2362.    
  5426 846-48-348      48    348.0       2367.    
  5427 846-61-25       61    25.00       2372.    
  5428 846-65-362      65    362.0       2372.    
  5429 846-71-365      71    365.0       2376.    
  5430 829-48-348      48    348.0       2368.    
  5431 829-55-353      55    353.0       2372.    
  5432 829-61-35       61    35.00       2375.    
  5433 829-65-362      65    362.0       2373.    
  5434 829-71-365      71    365.0       2379.    
  5435 839-12-121      12    121.0       2371.    
     MULTIPLE LAYERS AND PROPORTIONS :    2, 0.10       3, 0.90
  5436 839-71-365      71    365.0       2370.    
     MULTIPLE LAYERS AND PROPORTIONS :    2, 0.10       3, 0.90
  5437 817-1-220        1    220.0       2378.    
 Observation within a steady-state time step has been moved to the end of the time step.
  5438 817-6-331        6    331.0       2379.    
  5439 817-12-8        12    8.000       2379.    
  5440 813-32-87       32    87.00       2359.    
  5441 813-37-33       37    33.00       2360.    
  5442 813-42-350      42    350.0       2369.    
  5443 813-48-348      48    348.0       2377.    
  5444 813-56-17       56    17.00       2381.    
  5445 813-60-323      60    323.0       2381.    
  5446 813-65-301      65    301.0       2379.    
  5447 813-71-365      71    365.0       2386.    
  5448 818-17-5        17    5.000       2377.    
  5449 820-1-108        1    108.0       2362.    
 Observation within a steady-state time step has been moved to the end of the time step.
  5450 812-17-5        17    5.000       2369.    
     MULTIPLE LAYERS AND PROPORTIONS :    2, 0.08       3, 0.92
  5451 812-36-157      36    157.0       2336.    
     MULTIPLE LAYERS AND PROPORTIONS :    2, 0.08       3, 0.92
  5452 812-56-17       56    17.00       2373.    
     MULTIPLE LAYERS AND PROPORTIONS :    2, 0.08       3, 0.92
  5453 812-61-61       61    61.00       2364.    
     MULTIPLE LAYERS AND PROPORTIONS :    2, 0.08       3, 0.92
  5454 812-66-19       66    19.00       2373.    
     MULTIPLE LAYERS AND PROPORTIONS :    2, 0.08       3, 0.92
  5455 811-56-19       56    19.00       2372.    
  5456 811-66-20       66    20.00       2372.    
  5457 796-65-362      65    362.0       2378.    
  5458 796-71-365      71    365.0       2379.    
  5459 833-8-18         8    18.00       2360.    
     MULTIPLE LAYERS AND PROPORTIONS :    2, 0.17       3, 0.83
  5460 822-1-63         1    63.00       2365.    
 Observation within a steady-state time step has been moved to the end of the time step.
  5461 830-1-365        1    365.0       2364.    
 Observation within a steady-state time step has been moved to the end of the time step.
  5462 821-56-17       56    17.00       2359.    
  5463 821-61-61       61    61.00       2360.    
  5464 845-1-73         1    73.00       2315.    
 Observation within a steady-state time step has been moved to the end of the time step.
  5465 845-7-2          7    2.000       2316.    
  5466 845-11-272      11    272.0       2315.    
  5467 845-16-318      16    318.0       2306.    
  5468 845-22-33       22    33.00       2308.    
  5469 845-31-351      31    351.0       2303.    
  5470 845-36-62       36    62.00       2300.    
  5471 845-42-350      42    350.0       2299.    
  5472 845-48-348      48    348.0       2301.    
  5473 845-56-19       56    19.00       2310.    
  5474 845-60-323      60    323.0       2310.    
  5475 845-65-301      65    301.0       2309.    
  5476 845-71-13       71    13.00       2316.    
  5477 1183-16-315     16    315.0       2059.    
     MULTIPLE LAYERS AND PROPORTIONS :    2, 0.37       3, 0.63
  5478 1183-26-354     26    354.0       2042.    
     MULTIPLE LAYERS AND PROPORTIONS :    2, 0.37       3, 0.63
  5479 1183-31-362     31    362.0       2037.    
     MULTIPLE LAYERS AND PROPORTIONS :    2, 0.37       3, 0.63
  5480 1183-36-356     36    356.0       2032.    
     MULTIPLE LAYERS AND PROPORTIONS :    2, 0.37       3, 0.63
  5481 1183-42-350     42    350.0       2023.    
     MULTIPLE LAYERS AND PROPORTIONS :    2, 0.37       3, 0.63
  5482 1183-48-348     48    348.0       2015.    
     MULTIPLE LAYERS AND PROPORTIONS :    2, 0.37       3, 0.63
  5483 1183-66-25      66    25.00       1980.    
     MULTIPLE LAYERS AND PROPORTIONS :    2, 0.37       3, 0.63
  5484 1183-71-365     71    365.0       2002.    
     MULTIPLE LAYERS AND PROPORTIONS :    2, 0.37       3, 0.63
  5485 1190-56-23      56    23.00       2001.    
     MULTIPLE LAYERS AND PROPORTIONS :    2, 0.40       3, 0.60
  5486 1190-61-54      61    54.00       1992.    
     MULTIPLE LAYERS AND PROPORTIONS :    2, 0.40       3, 0.60
  5487 1190-66-25      66    25.00       1979.    
     MULTIPLE LAYERS AND PROPORTIONS :    2, 0.40       3, 0.60
  5488 1186-3-344       1    108.0       2064.    
 Observation within a steady-state time step has been moved to the end of the time step.
  5489 1186-5-69        5    69.00       2064.    
  5490 1186-17-6       17    6.000       2057.    
  5491 1185-10-213     10    213.0       2065.    
  5492 1178-38-335     38    335.0       2020.    
  5493 1178-42-349     42    349.0       2004.    
  5494 1178-48-349     48    349.0       1996.    
  5495 1178-55-353     55    353.0       1980.    
  5496 1178-61-21      61    21.00       1956.    
  5497 1178-66-34      66    34.00       1939.    
  5498 1178-71-365     71    365.0       1990.    
  5499 1182-66-25      66    25.00       1954.    
  5500 1132-12-4       12    4.000       2069.    
  5501 1134-1-73        1    73.00       2069.    
 Observation within a steady-state time step has been moved to the end of the time step.
  5502 1148-17-12      17    12.00       2046.    
     MULTIPLE LAYERS AND PROPORTIONS :    2, 0.28       3, 0.72
  5503 1148-21-356     21    356.0       2038.    
     MULTIPLE LAYERS AND PROPORTIONS :    2, 0.28       3, 0.72
  5504 1148-27-27      27    27.00       2033.    
     MULTIPLE LAYERS AND PROPORTIONS :    2, 0.28       3, 0.72
  5505 1148-31-348     31    348.0       2027.    
     MULTIPLE LAYERS AND PROPORTIONS :    2, 0.28       3, 0.72
  5506 1148-37-23      37    23.00       2022.    
     MULTIPLE LAYERS AND PROPORTIONS :    2, 0.28       3, 0.72
  5507 1148-42-349     42    349.0       2011.    
     MULTIPLE LAYERS AND PROPORTIONS :    2, 0.28       3, 0.72
  5508 1148-48-348     48    348.0       2000.    
     MULTIPLE LAYERS AND PROPORTIONS :    2, 0.28       3, 0.72
  5509 1148-55-353     55    353.0       1979.    
     MULTIPLE LAYERS AND PROPORTIONS :    2, 0.28       3, 0.72
  5510 1148-61-34      61    34.00       1951.    
     MULTIPLE LAYERS AND PROPORTIONS :    2, 0.28       3, 0.72
  5511 1148-66-6       66    6.000       1935.    
     MULTIPLE LAYERS AND PROPORTIONS :    2, 0.28       3, 0.72
  5512 1148-71-365     71    365.0       1952.    
     MULTIPLE LAYERS AND PROPORTIONS :    2, 0.28       3, 0.72
  5513 1177-35-321     35    321.0       2025.    
  5514 1177-42-349     42    349.0       2007.    
  5515 1177-48-348     48    348.0       1997.    
  5516 1177-55-353     55    353.0       1979.    
  5517 1177-61-21      61    21.00       1949.    
  5518 1177-66-34      66    34.00       1937.    
  5519 1177-71-50      71    50.00       1949.    
  5520 1105-12-4       12    4.000       2060.    
  5521 1105-16-333     16    333.0       2053.    
  5522 1105-21-356     21    356.0       2044.    
  5523 1106-42-349     42    349.0       2018.    
  5524 1106-55-353     55    353.0       1984.    
  5525 1106-61-13      61    13.00       1958.    
  5526 1106-66-6       66    6.000       1939.    
  5527 1106-71-365     71    365.0       1953.    
  5528 1102-66-6       66    6.000       1941.    
  5529 1102-71-365     71    365.0       1950.    
  5530 1120-3-152       3    152.0       2054.    
  5531 1089-42-349     42    349.0       2026.    
     MULTIPLE LAYERS AND PROPORTIONS :    2, 0.01       3, 0.99
  5532 1089-48-349     48    349.0       2010.    
     MULTIPLE LAYERS AND PROPORTIONS :    2, 0.01       3, 0.99
  5533 1089-55-353     55    353.0       1994.    
     MULTIPLE LAYERS AND PROPORTIONS :    2, 0.01       3, 0.99
  5534 1089-61-34      61    34.00       1975.    
     MULTIPLE LAYERS AND PROPORTIONS :    2, 0.01       3, 0.99
  5535 1089-66-6       66    6.000       1960.    
     MULTIPLE LAYERS AND PROPORTIONS :    2, 0.01       3, 0.99
  5536 1089-71-365     71    365.0       1971.    
     MULTIPLE LAYERS AND PROPORTIONS :    2, 0.01       3, 0.99
  5537 1093-66-6       66    6.000       1959.    
  5538 1093-71-365     71    365.0       1971.    
  5539 1087-48-349     48    349.0       1998.    
     MULTIPLE LAYERS AND PROPORTIONS :    2, 0.02       3, 0.98
  5540 1087-61-24      61    24.00       1992.    
     MULTIPLE LAYERS AND PROPORTIONS :    2, 0.02       3, 0.98
  5541 1087-71-70      71    70.00       1979.    
     MULTIPLE LAYERS AND PROPORTIONS :    2, 0.02       3, 0.98
  5542 1097-15-1       15    1.000       2056.    
  5543 996-26-315      26    315.0       2108.    
  5544 996-48-349      48    349.0       2065.    
  5545 996-55-353      55    353.0       2055.    
  5546 996-61-11       61    11.00       2037.    
  5547 996-66-6        66    6.000       2034.    
  5548 996-71-365      71    365.0       2036.    
  5549 995-39-335      39    335.0       2084.    
     MULTIPLE LAYERS AND PROPORTIONS :    2, 0.06       3, 0.94
  5550 995-42-349      42    349.0       2064.    
     MULTIPLE LAYERS AND PROPORTIONS :    2, 0.06       3, 0.94
  5551 995-55-353      55    353.0       2044.    
     MULTIPLE LAYERS AND PROPORTIONS :    2, 0.06       3, 0.94
  5552 995-61-34       61    34.00       2030.    
     MULTIPLE LAYERS AND PROPORTIONS :    2, 0.06       3, 0.94
  5553 995-66-6        66    6.000       2019.    
     MULTIPLE LAYERS AND PROPORTIONS :    2, 0.06       3, 0.94
  5554 995-71-365      71    365.0       2033.    
  5555 1090-12-5       12    5.000       2086.    
  5556 1090-17-5       17    5.000       2083.    
  5557 969-56-19       56    19.00       2115.    
  5558 969-71-365      71    365.0       2107.    
  5559 983-42-349      42    349.0       2090.    
  5560 983-55-353      55    353.0       2067.    
  5561 983-61-34       61    34.00       2057.    
  5562 983-66-6        66    6.000       2052.    
  5563 983-71-365      71    365.0       2058.    
  5564 982-39-238      39    238.0       2104.    
  5565 921-42-305      42    305.0       2120.    
  5566 921-48-349      48    349.0       2116.    
  5567 921-61-34       61    34.00       2099.    
  5568 921-65-356      65    356.0       2092.    
  5569 921-71-365      71    365.0       2090.    
  5570 924-43-60       43    60.00       2107.    
  5571 924-48-348      48    348.0       2109.    
  5572 924-55-353      55    353.0       2097.    
  5573 924-61-34       61    34.00       2089.    
  5574 924-66-6        66    6.000       2081.    
  5575 924-71-365      71    365.0       2078.    
  5576 909-56-16       56    16.00       2118.    
  5577 911-34-337      34    337.0       2159.    
  5578 900-56-19       56    19.00       2180.    
     MULTIPLE LAYERS AND PROPORTIONS :    2, 0.48       3, 0.52
  5579 900-61-61       61    61.00       2192.    
     MULTIPLE LAYERS AND PROPORTIONS :    2, 0.48       3, 0.52
  5580 848-56-18       56    18.00       2195.    
     MULTIPLE LAYERS AND PROPORTIONS :    2, 0.56       3, 0.44
  5581 848-66-28       66    28.00       2195.    
     MULTIPLE LAYERS AND PROPORTIONS :    2, 0.56       3, 0.44
  5582 826-56-19       56    19.00       2208.    
  5583 800-61-61       61    61.00       2207.    
  5584 800-66-28       66    28.00       2194.    
  5585 803-33-59       33    59.00       2215.    
  5586 852-2-305        2    305.0       2140.    
  5587 1249-56-27      56    27.00       2347.    
  5588 1249-66-13      66    13.00       2266.    
  5589 1249-71-365     71    365.0       2273.    
  5590 1235-22-32      22    32.00       2376.    
     MULTIPLE LAYERS AND PROPORTIONS :    2, 0.35       3, 0.65
  5591 1235-42-362     42    362.0       2298.    
     MULTIPLE LAYERS AND PROPORTIONS :    2, 0.35       3, 0.65
  5592 1235-48-357     48    357.0       2338.    
     MULTIPLE LAYERS AND PROPORTIONS :    2, 0.35       3, 0.65
  5593 1235-56-32      56    32.00       2326.    
     MULTIPLE LAYERS AND PROPORTIONS :    2, 0.35       3, 0.65
  5594 1238-48-320     48    320.0       2316.    
  5595 1238-56-10      56    10.00       2288.    
  5596 1238-66-10      66    10.00       2251.    
  5597 1238-71-41      71    41.00       2262.    
  5598 1238-71-365     71    365.0       2267.    
  5599 1225-1-365       1    365.0       2430.    
 Observation within a steady-state time step has been moved to the end of the time step.
  5600 1200-56-30      56    30.00       2268.    
  5601 1200-66-10      66    10.00       2231.    
  5602 1200-71-40      71    40.00       2241.    
  5603 1198-71-48      71    48.00       2398.    
  5604 1262-48-320     48    320.0       2313.    
  5605 1262-56-10      56    10.00       2285.    
  5606 1262-60-362     60    362.0       2250.    
  5607 1262-66-10      66    10.00       2246.    
  5608 1262-71-41      71    41.00       2257.    
  5609 1263-48-320     48    320.0       2313.    
  5610 1263-56-10      56    10.00       2284.    
  5611 1263-60-362     60    362.0       2250.    
  5612 1263-66-10      66    10.00       2246.    
  5613 1263-71-60      71    60.00       2257.    
  5614 1263-71-365     71    365.0       2262.    
  5615 1239-17-44      17    44.00       2388.    
     MULTIPLE LAYERS AND PROPORTIONS :    1, 0.16       2, 0.58       3, 0.26
  5616 1239-22-32      22    32.00       2374.    
     MULTIPLE LAYERS AND PROPORTIONS :    1, 0.16       2, 0.58       3, 0.26
  5617 1239-43-5       43    5.000       2298.    
     MULTIPLE LAYERS AND PROPORTIONS :    2, 0.74       3, 0.26
  5618 1239-48-364     48    364.0       2319.    
     MULTIPLE LAYERS AND PROPORTIONS :    2, 0.74       3, 0.26
  5619 1239-56-41      56    41.00       2290.    
     MULTIPLE LAYERS AND PROPORTIONS :    2, 0.74       3, 0.26
  5620 1239-60-362     60    362.0       2257.    
     MULTIPLE LAYERS AND PROPORTIONS :    2, 0.74       3, 0.26
  5621 1239-66-10      66    10.00       2254.    
     MULTIPLE LAYERS AND PROPORTIONS :    2, 0.74       3, 0.26
  5622 1239-71-365     71    365.0       2270.    
     MULTIPLE LAYERS AND PROPORTIONS :    1, 0.16       2, 0.58       3, 0.26
  5623 1232-48-321     48    321.0       2316.    
  5624 1232-56-27      56    27.00       2288.    
  5625 1232-60-361     60    361.0       2254.    
  5626 1232-66-10      66    10.00       2251.    
  5627 1232-71-41      71    41.00       2262.    
  5628 1241-56-27      56    27.00       2287.    
  5629 1241-66-10      66    10.00       2250.    
  5630 1241-71-40      71    40.00       2260.    
  5631 1270-56-30      56    30.00       2282.    
  5632 1270-71-42      71    42.00       2255.    
  5633 1273-43-1       43    1.000       2285.    
  5634 1273-48-364     48    364.0       2306.    
  5635 1273-56-32      56    32.00       2276.    
  5636 1273-60-362     60    362.0       2242.    
  5637 1273-65-348     65    348.0       2239.    
  5638 1273-71-365     71    365.0       2255.    
  5639 1256-1-365       1    365.0       2388.    
 Observation within a steady-state time step has been moved to the end of the time step.
  5640 1234-43-5       43    5.000       2295.    
     MULTIPLE LAYERS AND PROPORTIONS :    2, 0.48       3, 0.52
  5641 1234-48-364     48    364.0       2316.    
     MULTIPLE LAYERS AND PROPORTIONS :    2, 0.48       3, 0.52
  5642 1234-56-32      56    32.00       2288.    
     MULTIPLE LAYERS AND PROPORTIONS :    2, 0.48       3, 0.52
  5643 1234-60-362     60    362.0       2254.    
     MULTIPLE LAYERS AND PROPORTIONS :    2, 0.48       3, 0.52
  5644 1233-56-32      56    32.00       2288.    
  5645 1233-65-337     65    337.0       2255.    
  5646 1233-71-365     71    365.0       2272.    
  5647 1227-17-44      17    44.00       2392.    
     MULTIPLE LAYERS AND PROPORTIONS :    2, 0.25       3, 0.75
  5648 1227-22-58      22    58.00       2377.    
     MULTIPLE LAYERS AND PROPORTIONS :    2, 0.25       3, 0.75
  5649 1227-31-335     31    335.0       2354.    
     MULTIPLE LAYERS AND PROPORTIONS :    2, 0.25       3, 0.75
  5650 1227-43-5       43    5.000       2301.    
     MULTIPLE LAYERS AND PROPORTIONS :    2, 0.25       3, 0.75
  5651 1227-48-364     48    364.0       2322.    
     MULTIPLE LAYERS AND PROPORTIONS :    2, 0.25       3, 0.75
  5652 1227-56-32      56    32.00       2295.    
     MULTIPLE LAYERS AND PROPORTIONS :    2, 0.25       3, 0.75
  5653 1227-61-60      61    60.00       2261.    
     MULTIPLE LAYERS AND PROPORTIONS :    2, 0.25       3, 0.75
  5654 1227-71-365     71    365.0       2273.    
     MULTIPLE LAYERS AND PROPORTIONS :    2, 0.25       3, 0.75
  5655 1208-1-364       1    364.0       2408.    
 Observation within a steady-state time step has been moved to the end of the time step.
  5656 1208-6-360       6    360.0       2405.    
  5657 1208-11-360     11    360.0       2387.    
  5658 1208-16-357     16    357.0       2389.    
  5659 1208-21-361     21    361.0       2372.    
  5660 1208-26-354     26    354.0       2402.    
  5661 1208-31-362     31    362.0       2395.    
  5662 1219-22-33      22    33.00       2371.    
     MULTIPLE LAYERS AND PROPORTIONS :    1, 0.28       2, 0.09       3, 0.63
  5663 1219-33-165     33    165.0       2333.    
     MULTIPLE LAYERS AND PROPORTIONS :    2, 0.38       3, 0.62
  5664 1219-42-362     42    362.0       2295.    
     MULTIPLE LAYERS AND PROPORTIONS :    2, 0.38       3, 0.62
  5665 1219-48-357     48    357.0       2316.    
     MULTIPLE LAYERS AND PROPORTIONS :    2, 0.38       3, 0.62
  5666 1219-56-32      56    32.00       2290.    
     MULTIPLE LAYERS AND PROPORTIONS :    2, 0.38       3, 0.62
  5667 1219-60-362     60    362.0       2256.    
     MULTIPLE LAYERS AND PROPORTIONS :    2, 0.38       3, 0.62
  5668 1219-66-10      66    10.00       2253.    
     MULTIPLE LAYERS AND PROPORTIONS :    2, 0.37       3, 0.63
  5669 1219-71-365     71    365.0       2269.    
     MULTIPLE LAYERS AND PROPORTIONS :    1, 0.28       2, 0.10       3, 0.62
  5670 1217-56-27      56    27.00       2292.    
  5671 1217-71-365     71    365.0       2271.    
  5672 1205-33-160     33    160.0       2338.    
     MULTIPLE LAYERS AND PROPORTIONS :    1, 0.34       2, 0.11       3, 0.55
  5673 1205-42-362     42    362.0       2300.    
     MULTIPLE LAYERS AND PROPORTIONS :    2, 0.45       3, 0.55
  5674 1205-48-357     48    357.0       2322.    
     MULTIPLE LAYERS AND PROPORTIONS :    2, 0.45       3, 0.55
  5675 1205-56-34      56    34.00       2298.    
     MULTIPLE LAYERS AND PROPORTIONS :    2, 0.45       3, 0.55
  5676 1205-66-10      66    10.00       2296.    
     MULTIPLE LAYERS AND PROPORTIONS :    2, 0.45       3, 0.55
  5677 1231-7-66        7    66.00       2392.    
     MULTIPLE LAYERS AND PROPORTIONS :    1, 0.33       2, 0.52       3, 0.15
  5678 1231-12-57      12    57.00       2377.    
     MULTIPLE LAYERS AND PROPORTIONS :    1, 0.33       2, 0.52       3, 0.15
  5679 1231-17-4       17    4.000       2375.    
     MULTIPLE LAYERS AND PROPORTIONS :    1, 0.33       2, 0.52       3, 0.15
  5680 1231-22-32      22    32.00       2364.    
     MULTIPLE LAYERS AND PROPORTIONS :    1, 0.33       2, 0.52       3, 0.15
  5681 1231-27-10      27    10.00       2353.    
     MULTIPLE LAYERS AND PROPORTIONS :    1, 0.33       2, 0.52       3, 0.15
  5682 1231-31-335     31    335.0       2341.    
     MULTIPLE LAYERS AND PROPORTIONS :    1, 0.33       2, 0.52       3, 0.15
  5683 1231-37-335     37    335.0       2333.    
     MULTIPLE LAYERS AND PROPORTIONS :    2, 0.85       3, 0.15
  5684 1179-6-115       6    115.0       2415.    
  5685 1168-17-47      17    47.00       2403.    
  5686 1168-22-32      22    32.00       2392.    
  5687 1168-36-335     36    335.0       2315.    
  5688 1114-1-365       1    365.0       2440.    
 Observation within a steady-state time step has been moved to the end of the time step.
  5689 1122-17-47      17    47.00       2418.    
  5690 1122-22-32      22    32.00       2391.    
  5691 1122-42-356     42    356.0       2298.    
  5692 1122-48-335     48    335.0       2336.    
  5693 1140-7-66        7    66.00       2423.    
     MULTIPLE LAYERS AND PROPORTIONS :    1, 0.46       2, 0.52       3, 0.02
  5694 1140-12-57      12    57.00       2419.    
     MULTIPLE LAYERS AND PROPORTIONS :    1, 0.46       2, 0.52       3, 0.02
  5695 1140-17-4       17    4.000       2406.    
     MULTIPLE LAYERS AND PROPORTIONS :    1, 0.46       2, 0.52       3, 0.02
  5696 1140-22-32      22    32.00       2395.    
     MULTIPLE LAYERS AND PROPORTIONS :    1, 0.46       2, 0.52       3, 0.02
  5697 1140-31-335     31    335.0       2361.    
     MULTIPLE LAYERS AND PROPORTIONS :    2, 0.98       3, 0.02
  5698 1140-36-345     36    345.0       2332.    
     MULTIPLE LAYERS AND PROPORTIONS :    2, 0.98       3, 0.02
  5699 1193-48-321     48    321.0       2325.    
     MULTIPLE LAYERS AND PROPORTIONS :    2, 0.62       3, 0.38
  5700 1193-56-30      56    30.00       2300.    
     MULTIPLE LAYERS AND PROPORTIONS :    2, 0.62       3, 0.38
  5701 1176-48-320     48    320.0       2326.    
  5702 1176-56-10      56    10.00       2302.    
  5703 1176-60-361     60    361.0       2271.    
  5704 1176-66-10      66    10.00       2265.    
  5705 1176-71-40      71    40.00       2276.    
  5706 1176-71-365     71    365.0       2282.    
  5707 1159-66-10      66    10.00       2352.    
  5708 1159-71-62      71    62.00       2331.    
  5709 1159-71-365     71    365.0       2326.    
  5710 1160-71-62      71    62.00       2408.    
     MULTIPLE LAYERS AND PROPORTIONS :    1, 0.79       2, 0.21
  5711 1160-71-365     71    365.0       2409.    
     MULTIPLE LAYERS AND PROPORTIONS :    1, 0.79       2, 0.21
  5712 1147-42-356     42    356.0       2384.    
  5713 1147-48-335     48    335.0       2391.    
  5714 1147-56-17      56    17.00       2388.    
  5715 1141-1-274       1    274.0       2417.    
 Observation within a steady-state time step has been moved to the end of the time step.
  5716 1141-7-176       7    176.0       2412.    
  5717 1141-11-311     11    311.0       2405.    
  5718 1141-17-44      17    44.00       2406.    
  5719 1141-22-30      22    30.00       2388.    
  5720 1141-26-349     26    349.0       2370.    
  5721 1141-31-362     31    362.0       2359.    
  5722 1141-36-356     36    356.0       2320.    
  5723 1141-42-362     42    362.0       2302.    
  5724 1141-48-364     48    364.0       2330.    
  5725 1141-56-32      56    32.00       2308.    
  5726 1141-60-362     60    362.0       2280.    
  5727 1141-66-1       66    1.000       2273.    
  5728 1141-71-365     71    365.0       2289.    
  5729 1121-17-44      17    44.00       2430.    
     MULTIPLE LAYERS AND PROPORTIONS :    1, 0.34       2, 0.21       3, 0.45
  5730 1121-22-33      22    33.00       2397.    
     MULTIPLE LAYERS AND PROPORTIONS :    1, 0.34       2, 0.21       3, 0.45
  5731 1121-31-335     31    335.0       2362.    
     MULTIPLE LAYERS AND PROPORTIONS :    1, 0.34       2, 0.21       3, 0.45
  5732 1121-35-345     35    345.0       2332.    
     MULTIPLE LAYERS AND PROPORTIONS :    2, 0.55       3, 0.45
  5733 1121-42-356     42    356.0       2319.    
     MULTIPLE LAYERS AND PROPORTIONS :    2, 0.55       3, 0.45
  5734 1121-48-355     48    355.0       2339.    
     MULTIPLE LAYERS AND PROPORTIONS :    2, 0.55       3, 0.45
  5735 1121-56-32      56    32.00       2335.    
     MULTIPLE LAYERS AND PROPORTIONS :    2, 0.55       3, 0.45
  5736 1121-60-362     60    362.0       2321.    
     MULTIPLE LAYERS AND PROPORTIONS :    2, 0.55       3, 0.45
  5737 1121-65-348     65    348.0       2330.    
     MULTIPLE LAYERS AND PROPORTIONS :    1, 0.34       2, 0.21       3, 0.45
  5738 1121-71-365     71    365.0       2333.    
     MULTIPLE LAYERS AND PROPORTIONS :    1, 0.34       2, 0.21       3, 0.45
  5739 1192-71-55      71    55.00       2429.    
  5740 1157-48-322     48    322.0       2327.    
  5741 1157-56-10      56    10.00       2305.    
  5742 1157-60-361     60    361.0       2275.    
  5743 1157-66-10      66    10.00       2269.    
  5744 1157-71-40      71    40.00       2280.    
  5745 1180-48-323     48    323.0       2405.    
  5746 1167-71-365     71    365.0       2406.    
     MULTIPLE LAYERS AND PROPORTIONS :    1, 0.91       2, 0.09
  5747 1170-71-365     71    365.0       2406.    
     MULTIPLE LAYERS AND PROPORTIONS :    1, 0.69       2, 0.31
  5748 1172-71-365     71    365.0       2406.    
  5749 1163-71-365     71    365.0       2407.    
     MULTIPLE LAYERS AND PROPORTIONS :    1, 0.88       2, 0.12
  5750 1155-71-365     71    365.0       2404.    
  5751 1144-71-365     71    365.0       2418.    
     MULTIPLE LAYERS AND PROPORTIONS :    2, 0.20       3, 0.80
  5752 1080-22-33      22    33.00       2448.    
  5753 1080-31-335     31    335.0       2422.    
  5754 1080-42-356     42    356.0       2428.    
  5755 1080-48-355     48    355.0       2431.    
  5756 1085-42-356     42    356.0       2323.    
     MULTIPLE LAYERS AND PROPORTIONS :    1, 0.12       2, 0.38       3, 0.50
  5757 1085-48-355     48    355.0       2409.    
     MULTIPLE LAYERS AND PROPORTIONS :    1, 0.12       2, 0.38       3, 0.50
  5758 1091-71-56      71    56.00       2424.    
  5759 1048-71-365     71    365.0       2439.    
     MULTIPLE LAYERS AND PROPORTIONS :    1, 0.20       2, 0.12       3, 0.68
  5760 1012-71-365     71    365.0       2441.    
     MULTIPLE LAYERS AND PROPORTIONS :    1, 0.50       2, 0.31       3, 0.19
  5761 1039-48-322     48    322.0       2338.    
  5762 1039-56-30      56    30.00       2315.    
  5763 1039-60-362     60    362.0       2288.    
  5764 1039-66-13      66    13.00       2281.    
  5765 1039-71-365     71    365.0       2299.    
  5766 1040-71-365     71    365.0       2448.    
  5767 1075-17-44      17    44.00       2442.    
     MULTIPLE LAYERS AND PROPORTIONS :    1, 0.35       2, 0.04       3, 0.61
  5768 1075-22-33      22    33.00       2435.    
     MULTIPLE LAYERS AND PROPORTIONS :    1, 0.35       2, 0.04       3, 0.61
  5769 1075-31-335     31    335.0       2413.    
     MULTIPLE LAYERS AND PROPORTIONS :    1, 0.35       2, 0.04       3, 0.61
  5770 1053-42-357     42    357.0       2358.    
  5771 1056-48-335     48    335.0       2338.    
  5772 1056-56-17      56    17.00       2317.    
  5773 1016-17-32      17    32.00       2422.    
  5774 1016-31-335     31    335.0       2366.    
  5775 1016-37-319     37    319.0       2356.    
  5776 1011-22-33      22    33.00       2391.    
     MULTIPLE LAYERS AND PROPORTIONS :    1, 0.14       2, 0.14       3, 0.72
  5777 1015-42-356     42    356.0       2311.    
  5778 1015-48-337     48    337.0       2332.    
  5779 1015-56-19      56    19.00       2335.    
  5780 1015-61-53      61    53.00       2295.    
  5781 1015-66-32      66    32.00       2286.    
  5782 1094-1-277       1    277.0       2430.    
 Observation within a steady-state time step has been moved to the end of the time step.
  5783 1094-6-340       6    340.0       2427.    
  5784 1094-10-27      10    27.00       2424.    
  5785 1077-7-176       7    176.0       2432.    
     MULTIPLE LAYERS AND PROPORTIONS :    1, 0.24       2, 0.76
  5786 1063-17-46      17    46.00       2415.    
     MULTIPLE LAYERS AND PROPORTIONS :    1, 0.12       2, 0.55       3, 0.33
  5787 1063-22-33      22    33.00       2394.    
     MULTIPLE LAYERS AND PROPORTIONS :    1, 0.12       2, 0.55       3, 0.33
  5788 1034-36-335     36    335.0       2322.    
     MULTIPLE LAYERS AND PROPORTIONS :    2, 0.39       3, 0.61
  5789 1034-42-362     42    362.0       2309.    
     MULTIPLE LAYERS AND PROPORTIONS :    2, 0.39       3, 0.61
  5790 1034-48-357     48    357.0       2346.    
     MULTIPLE LAYERS AND PROPORTIONS :    2, 0.39       3, 0.61
  5791 1034-56-34      56    34.00       2323.    
     MULTIPLE LAYERS AND PROPORTIONS :    2, 0.39       3, 0.61
  5792 1034-66-1       66    1.000       2293.    
     MULTIPLE LAYERS AND PROPORTIONS :    2, 0.39       3, 0.61
  5793 1034-71-54      71    54.00       2305.    
     MULTIPLE LAYERS AND PROPORTIONS :    2, 0.39       3, 0.61
  5794 1034-71-365     71    365.0       2310.    
     MULTIPLE LAYERS AND PROPORTIONS :    2, 0.39       3, 0.61
  5795 997-17-46       17    46.00       2437.    
  5796 997-22-33       22    33.00       2420.    
  5797 1008-1-121       1    121.0       2454.    
 Observation within a steady-state time step has been moved to the end of the time step.
  5798 1049-17-46      17    46.00       2418.    
     MULTIPLE LAYERS AND PROPORTIONS :    2, 0.38       3, 0.62
  5799 1049-31-335     31    335.0       2358.    
     MULTIPLE LAYERS AND PROPORTIONS :    2, 0.38       3, 0.62
  5800 1049-36-335     36    335.0       2342.    
     MULTIPLE LAYERS AND PROPORTIONS :    2, 0.38       3, 0.62
  5801 1049-42-356     42    356.0       2307.    
     MULTIPLE LAYERS AND PROPORTIONS :    2, 0.38       3, 0.62
  5802 1049-48-334     48    334.0       2341.    
     MULTIPLE LAYERS AND PROPORTIONS :    2, 0.38       3, 0.62
  5803 1049-56-18      56    18.00       2319.    
     MULTIPLE LAYERS AND PROPORTIONS :    2, 0.38       3, 0.62
  5804 1049-61-53      61    53.00       2292.    
     MULTIPLE LAYERS AND PROPORTIONS :    2, 0.38       3, 0.62
  5805 1007-11-194     11    194.0       2432.    
  5806 1007-17-4       17    4.000       2433.    
  5807 1007-22-32      22    32.00       2411.    
  5808 1007-27-10      27    10.00       2401.    
  5809 1007-31-335     31    335.0       2370.    
  5810 1007-37-319     37    319.0       2361.    
  5811 1006-1-364       1    364.0       2442.    
 Observation within a steady-state time step has been moved to the end of the time step.
  5812 1006-7-66        7    66.00       2438.    
  5813 1006-11-258     11    258.0       2368.    
  5814 1006-17-44      17    44.00       2426.    
  5815 1065-42-356     42    356.0       2413.    
  5816 1065-48-334     48    334.0       2415.    
  5817 1065-56-18      56    18.00       2414.    
  5818 1065-66-24      66    24.00       2413.    
  5819 991-22-34       22    34.00       2435.    
  5820 991-26-279      26    279.0       2422.    
  5821 991-31-335      31    335.0       2404.    
  5822 991-37-319      37    319.0       2396.    
  5823 991-42-356      42    356.0       2390.    
  5824 991-48-334      48    334.0       2394.    
  5825 991-66-27       66    27.00       2392.    
  5826 976-1-365        1    365.0       2456.    
 Observation within a steady-state time step has been moved to the end of the time step.
  5827 963-1-365        1    365.0       2458.    
 Observation within a steady-state time step has been moved to the end of the time step.
  5828 964-1-365        1    365.0       2458.    
 Observation within a steady-state time step has been moved to the end of the time step.
  5829 960-1-365        1    365.0       2471.    
 Observation within a steady-state time step has been moved to the end of the time step.
  5830 953-1-364        1    364.0       2473.    
 Observation within a steady-state time step has been moved to the end of the time step.
  5831 950-17-4        17    4.000       2472.    
  5832 936-1-365        1    365.0       2461.    
 Observation within a steady-state time step has been moved to the end of the time step.
  5833 932-1-365        1    365.0       2504.    
 Observation within a steady-state time step has been moved to the end of the time step.
  5834 944-42-356      42    356.0       2356.    
  5835 944-48-341      48    341.0       2376.    
  5836 926-1-365        1    365.0       2487.    
 Observation within a steady-state time step has been moved to the end of the time step.
  5837 929-1-364        1    364.0       2484.    
 Observation within a steady-state time step has been moved to the end of the time step.
  5838 929-6-340        6    340.0       2482.    
  5839 929-11-333      11    333.0       2478.    
  5840 929-16-301      16    301.0       2474.    
  5841 974-42-362      42    362.0       2301.    
  5842 974-48-336      48    336.0       2335.    
  5843 974-56-18       56    18.00       2322.    
  5844 957-1-365        1    365.0       2481.    
 Observation within a steady-state time step has been moved to the end of the time step.
  5845 942-1-365        1    365.0       2544.    
 Observation within a steady-state time step has been moved to the end of the time step.
  5846 937-1-364        1    364.0       2473.    
 Observation within a steady-state time step has been moved to the end of the time step.
  5847 943-22-32       22    32.00       2442.    
  5848 943-26-279      26    279.0       2421.    
  5849 943-31-335      31    335.0       2403.    
  5850 943-36-335      36    335.0       2365.    
  5851 943-42-351      42    351.0       2351.    
  5852 943-48-336      48    336.0       2355.    
  5853 862-22-33       22    33.00       2507.    
     MULTIPLE LAYERS AND PROPORTIONS :    1, 0.34       2, 0.34       3, 0.32
  5854 862-27-59       27    59.00       2490.    
     MULTIPLE LAYERS AND PROPORTIONS :    1, 0.34       2, 0.34       3, 0.32
  5855 862-31-335      31    335.0       2453.    
     MULTIPLE LAYERS AND PROPORTIONS :    1, 0.34       2, 0.34       3, 0.32
  5856 862-36-336      36    336.0       2434.    
     MULTIPLE LAYERS AND PROPORTIONS :    1, 0.34       2, 0.34       3, 0.32
  5857 862-42-351      42    351.0       2426.    
     MULTIPLE LAYERS AND PROPORTIONS :    1, 0.34       2, 0.34       3, 0.32
  5858 862-48-337      48    337.0       2442.    
     MULTIPLE LAYERS AND PROPORTIONS :    1, 0.34       2, 0.34       3, 0.32
  5859 901-1-364        1    364.0       2513.    
 Observation within a steady-state time step has been moved to the end of the time step.
  5860 907-37-342      37    342.0       2408.    
     MULTIPLE LAYERS AND PROPORTIONS :    2, 0.59       3, 0.41
  5861 903-1-365        1    365.0       2503.    
 Observation within a steady-state time step has been moved to the end of the time step.
  5862 895-42-356      42    356.0       2392.    
  5863 895-48-337      48    337.0       2386.    
  5864 898-1-32         1    32.00       2492.    
 Observation within a steady-state time step has been moved to the end of the time step.
  5865 898-17-4        17    4.000       2491.    
  5866 889-22-32       22    32.00       2489.    
     MULTIPLE LAYERS AND PROPORTIONS :    1, 0.20       2, 0.22       3, 0.58
  5867 889-26-279      26    279.0       2467.    
     MULTIPLE LAYERS AND PROPORTIONS :    1, 0.20       2, 0.22       3, 0.58
  5868 889-31-335      31    335.0       2455.    
     MULTIPLE LAYERS AND PROPORTIONS :    1, 0.20       2, 0.22       3, 0.58
  5869 889-36-336      36    336.0       2425.    
     MULTIPLE LAYERS AND PROPORTIONS :    1, 0.20       2, 0.22       3, 0.58
  5870 889-42-356      42    356.0       2380.    
     MULTIPLE LAYERS AND PROPORTIONS :    1, 0.20       2, 0.22       3, 0.58
  5871 889-48-337      48    337.0       2404.    
     MULTIPLE LAYERS AND PROPORTIONS :    1, 0.20       2, 0.22       3, 0.58
  5872 889-61-54       61    54.00       2384.    
     MULTIPLE LAYERS AND PROPORTIONS :    1, 0.20       2, 0.22       3, 0.58
  5873 883-42-356      42    356.0       2375.    
  5874 621-37-343      37    343.0       2434.    
     MULTIPLE LAYERS AND PROPORTIONS :    2, 0.16       3, 0.84
  5875 934-33-21       33    21.00       2430.    
  5876 863-1-365        1    365.0       2520.    
 Observation within a steady-state time step has been moved to the end of the time step.
  5877 914-48-336      48    336.0       2386.    
  5878 914-61-55       61    55.00       2363.    
  5879 902-17-47       17    47.00       2483.    
     MULTIPLE LAYERS AND PROPORTIONS :    1, 0.16       2, 0.17       3, 0.67
  5880 902-22-32       22    32.00       2476.    
     MULTIPLE LAYERS AND PROPORTIONS :    1, 0.16       2, 0.17       3, 0.67
  5881 902-26-278      26    278.0       2456.    
     MULTIPLE LAYERS AND PROPORTIONS :    1, 0.16       2, 0.17       3, 0.67
  5882 902-36-336      36    336.0       2408.    
     MULTIPLE LAYERS AND PROPORTIONS :    1, 0.17       2, 0.17       3, 0.66
  5883 902-42-356      42    356.0       2375.    
     MULTIPLE LAYERS AND PROPORTIONS :    2, 0.33       3, 0.67
  5884 902-48-337      48    337.0       2392.    
     MULTIPLE LAYERS AND PROPORTIONS :    2, 0.33       3, 0.67
  5885 902-61-54       61    54.00       2366.    
     MULTIPLE LAYERS AND PROPORTIONS :    2, 0.33       3, 0.67
  5886 916-1-365        1    365.0       2494.    
 Observation within a steady-state time step has been moved to the end of the time step.
  5887 916-7-298        7    298.0       2486.    
  5888 916-11-258      11    258.0       2482.    
  5889 916-17-32       17    32.00       2483.    
  5890 916-22-34       22    34.00       2477.    
  5891 916-26-278      26    278.0       2448.    
  5892 916-36-336      36    336.0       2401.    
  5893 916-42-362      42    362.0       2381.    
  5894 916-48-335      48    335.0       2388.    
  5895 916-61-55       61    55.00       2363.    
  5896 917-42-362      42    362.0       2386.    
  5897 917-48-335      48    335.0       2398.    
  5898 905-1-365        1    365.0       2494.    
 Observation within a steady-state time step has been moved to the end of the time step.
  5899 910-42-362      42    362.0       2406.    
     MULTIPLE LAYERS AND PROPORTIONS :    2, 0.05       3, 0.95
  5900 897-1-365        1    365.0       2511.    
 Observation within a steady-state time step has been moved to the end of the time step.
  5901 864-1-364        1    364.0       2511.    
 Observation within a steady-state time step has been moved to the end of the time step.
  5902 865-42-356      42    356.0       2388.    
     MULTIPLE LAYERS AND PROPORTIONS :    2, 0.53       3, 0.47
  5903 865-48-335      48    335.0       2411.    
     MULTIPLE LAYERS AND PROPORTIONS :    2, 0.53       3, 0.47
  5904 854-1-365        1    365.0       2516.    
 Observation within a steady-state time step has been moved to the end of the time step.
  5905 856-1-365        1    365.0       2515.    
 Observation within a steady-state time step has been moved to the end of the time step.
  5906 851-22-34       22    34.00       2501.    
     MULTIPLE LAYERS AND PROPORTIONS :    1, 0.27       2, 0.18       3, 0.55
  5907 851-26-278      26    278.0       2480.    
     MULTIPLE LAYERS AND PROPORTIONS :    1, 0.27       2, 0.18       3, 0.55
  5908 851-37-342      37    342.0       2445.    
     MULTIPLE LAYERS AND PROPORTIONS :    1, 0.27       2, 0.18       3, 0.55
  5909 851-48-337      48    337.0       2426.    
     MULTIPLE LAYERS AND PROPORTIONS :    2, 0.45       3, 0.55
  5910 851-61-54       61    54.00       2417.    
     MULTIPLE LAYERS AND PROPORTIONS :    2, 0.45       3, 0.55
  5911 843-1-365        1    365.0       2514.    
 Observation within a steady-state time step has been moved to the end of the time step.
  5912 841-1-365        1    365.0       2523.    
 Observation within a steady-state time step has been moved to the end of the time step.
  5913 836-17-4        17    4.000       2508.    
  5914 823-1-365        1    365.0       2528.    
 Observation within a steady-state time step has been moved to the end of the time step.
  5915 859-48-337      48    337.0       2415.    
  5916 842-37-342      37    342.0       2445.    
     MULTIPLE LAYERS AND PROPORTIONS :    2, 0.23       3, 0.77
  5917 842-42-356      42    356.0       2428.    
     MULTIPLE LAYERS AND PROPORTIONS :    2, 0.23       3, 0.77
  5918 842-48-337      48    337.0       2429.    
     MULTIPLE LAYERS AND PROPORTIONS :    2, 0.23       3, 0.77
  5919 842-61-54       61    54.00       2421.    
     MULTIPLE LAYERS AND PROPORTIONS :    2, 0.23       3, 0.77
  5920 831-42-351      42    351.0       2438.    
     MULTIPLE LAYERS AND PROPORTIONS :    1, 0.45       2, 0.55
  5921 831-48-337      48    337.0       2434.    
     MULTIPLE LAYERS AND PROPORTIONS :    1, 0.45       2, 0.55
  5922 828-42-351      42    351.0       2440.    
     MULTIPLE LAYERS AND PROPORTIONS :    1, 0.41       2, 0.33       3, 0.26
  5923 828-48-337      48    337.0       2437.    
     MULTIPLE LAYERS AND PROPORTIONS :    1, 0.41       2, 0.33       3, 0.26
  5924 819-1-365        1    365.0       2533.    
 Observation within a steady-state time step has been moved to the end of the time step.
  5925 1254-71-42      71    42.00       2339.    
  5926 1228-37-95      37    95.00       2395.    
  5927 1228-42-356     42    356.0       2381.    
  5928 1228-56-20      56    20.00       2381.    
  5929 1228-66-25      66    25.00       2353.    
  5930 1228-71-40      71    40.00       2348.    
  5931 1199-48-344     48    344.0       2388.    
  5932 1199-56-20      56    20.00       2389.    
  5933 1199-61-60      61    60.00       2375.    
  5934 1199-66-25      66    25.00       2369.    
  5935 1199-71-40      71    40.00       2361.    
  5936 1243-42-362     42    362.0       2314.    
  5937 1243-56-18      56    18.00       2313.    
  5938 1243-61-60      61    60.00       2294.    
  5939 1243-66-27      66    27.00       2283.    
  5940 1243-71-56      71    56.00       2280.    
  5941 1218-71-365     71    365.0       2422.    
     MULTIPLE LAYERS AND PROPORTIONS :    1, 0.32       2, 0.31       3, 0.37
  5942 1204-42-356     42    356.0       2298.    
     MULTIPLE LAYERS AND PROPORTIONS :    1, 0.15       2, 0.14       3, 0.71
  5943 1204-56-17      56    17.00       2295.    
     MULTIPLE LAYERS AND PROPORTIONS :    1, 0.15       2, 0.14       3, 0.71
  5944 1204-66-26      66    26.00       2264.    
     MULTIPLE LAYERS AND PROPORTIONS :    1, 0.15       2, 0.14       3, 0.71
  5945 1204-71-365     71    365.0       2283.    
     MULTIPLE LAYERS AND PROPORTIONS :    1, 0.15       2, 0.14       3, 0.71
  5946 1131-71-365     71    365.0       2433.    
  5947 1112-48-320     48    320.0       2331.    
  5948 1112-56-25      56    25.00       2321.    
  5949 1112-60-362     60    362.0       2302.    
  5950 1112-65-348     65    348.0       2295.    
  5951 1112-71-60      71    60.00       2306.    
  5952 1112-71-365     71    365.0       2310.    
  5953 1118-71-365     71    365.0       2460.    
  5954 1111-71-362     71    362.0       2461.    
     MULTIPLE LAYERS AND PROPORTIONS :    1, 0.54       2, 0.46
  5955 1169-71-362     71    362.0       2447.    
  5956 1100-48-348     48    348.0       2500.    
     MULTIPLE LAYERS AND PROPORTIONS :    1, 0.56       2, 0.44
  5957 1100-56-25      56    25.00       2499.    
     MULTIPLE LAYERS AND PROPORTIONS :    1, 0.56       2, 0.44
  5958 1100-61-56      61    56.00       2487.    
     MULTIPLE LAYERS AND PROPORTIONS :    1, 0.56       2, 0.44
  5959 1100-66-42      66    42.00       2474.    
     MULTIPLE LAYERS AND PROPORTIONS :    1, 0.56       2, 0.44
  5960 1100-71-365     71    365.0       2471.    
     MULTIPLE LAYERS AND PROPORTIONS :    1, 0.56       2, 0.44
  5961 1051-42-355     42    355.0       2511.    
     MULTIPLE LAYERS AND PROPORTIONS :    2, 0.84       3, 0.16
  5962 1051-48-365     48    365.0       2505.    
     MULTIPLE LAYERS AND PROPORTIONS :    2, 0.84       3, 0.16
  5963 1051-56-25      56    25.00       2501.    
     MULTIPLE LAYERS AND PROPORTIONS :    2, 0.84       3, 0.16
  5964 1051-61-42      61    42.00       2495.    
     MULTIPLE LAYERS AND PROPORTIONS :    2, 0.84       3, 0.16
  5965 1051-66-53      66    53.00       2487.    
     MULTIPLE LAYERS AND PROPORTIONS :    2, 0.84       3, 0.16
  5966 1051-71-365     71    365.0       2480.    
     MULTIPLE LAYERS AND PROPORTIONS :    2, 0.84       3, 0.16
  5967 1036-12-95      12    95.00       2539.    
  5968 1036-26-349     26    349.0       2538.    
  5969 1036-48-348     48    348.0       2513.    
  5970 1036-56-25      56    25.00       2511.    
  5971 1036-61-42      61    42.00       2505.    
  5972 1036-66-53      66    53.00       2496.    
  5973 1036-71-365     71    365.0       2487.    
  5974 1025-56-27      56    27.00       2508.    
  5975 1025-66-59      66    59.00       2497.    
  5976 1054-66-59      66    59.00       2488.    
  5977 1055-65-348     65    348.0       2483.    
  5978 1001-56-18      56    18.00       2499.    
  5979 1001-65-348     65    348.0       2495.    
  5980 1027-56-18      56    18.00       2499.    
  5981 1086-71-55      71    55.00       2451.    
  5982 1099-26-349     26    349.0       2377.    
     MULTIPLE LAYERS AND PROPORTIONS :    1, 0.26       2, 0.24       3, 0.50
  5983 1099-43-4       43    4.000       2312.    
     MULTIPLE LAYERS AND PROPORTIONS :    1, 0.26       2, 0.24       3, 0.50
  5984 1099-48-362     48    362.0       2335.    
     MULTIPLE LAYERS AND PROPORTIONS :    1, 0.26       2, 0.24       3, 0.50
  5985 1099-56-9       56    9.000       2312.    
     MULTIPLE LAYERS AND PROPORTIONS :    1, 0.26       2, 0.24       3, 0.50
  5986 1042-48-355     48    355.0       2340.    
  5987 1042-56-25      56    25.00       2320.    
  5988 1042-60-362     60    362.0       2294.    
  5989 1042-65-348     65    348.0       2287.    
  5990 1042-71-365     71    365.0       2304.    
  5991 952-56-33       56    33.00       2509.    
  5992 952-65-348      65    348.0       2501.    
  5993 949-56-27       56    27.00       2530.    
  5994 993-56-27       56    27.00       2504.    
  5995 956-56-29       56    29.00       2515.    
  5996 886-71-355      71    355.0       2505.    
     MULTIPLE LAYERS AND PROPORTIONS :    2, 0.15       3, 0.85
  5997 886-71-362      71    362.0       2497.    
     MULTIPLE LAYERS AND PROPORTIONS :    2, 0.15       3, 0.85
  5998 913-42-355      42    355.0       2532.    
  5999 913-48-334      48    334.0       2529.    
  6000 913-56-18       56    18.00       2525.    
  6001 913-61-53       61    53.00       2521.    
  6002 913-66-32       66    32.00       2513.    
  6003 874-71-61       71    61.00       2503.    
  6004 933-48-338      48    338.0       2507.    
  6005 933-56-18       56    18.00       2504.    
  6006 933-61-53       61    53.00       2501.    
  6007 933-66-32       66    32.00       2498.    
  6008 887-26-285      26    285.0       2524.    
     MULTIPLE LAYERS AND PROPORTIONS :    1, 0.61       2, 0.39
  6009 887-31-335      31    335.0       2519.    
     MULTIPLE LAYERS AND PROPORTIONS :    1, 0.61       2, 0.39
  6010 887-37-1        37    1.000       2505.    
     MULTIPLE LAYERS AND PROPORTIONS :    1, 0.61       2, 0.39
  6011 887-42-357      42    357.0       2478.    
     MULTIPLE LAYERS AND PROPORTIONS :    1, 0.61       2, 0.39
  6012 877-42-352      42    352.0       2515.    
  6013 877-48-338      48    338.0       2518.    
  6014 877-61-53       61    53.00       2510.    
  6015 877-66-32       66    32.00       2509.    
  6016 919-42-357      42    357.0       2478.    
     MULTIPLE LAYERS AND PROPORTIONS :    1, 0.81       2, 0.19
  6017 920-42-357      42    357.0       2473.    
     MULTIPLE LAYERS AND PROPORTIONS :    1, 0.88       2, 0.12
  6018 888-42-357      42    357.0       2467.    
  6019 892-17-48       17    48.00       2512.    
     MULTIPLE LAYERS AND PROPORTIONS :    1, 0.61       2, 0.39
  6020 892-22-37       22    37.00       2508.    
     MULTIPLE LAYERS AND PROPORTIONS :    1, 0.61       2, 0.39
  6021 892-26-285      26    285.0       2497.    
     MULTIPLE LAYERS AND PROPORTIONS :    1, 0.61       2, 0.39
  6022 892-31-335      31    335.0       2484.    
     MULTIPLE LAYERS AND PROPORTIONS :    1, 0.61       2, 0.39
  6023 892-36-337      36    337.0       2472.    
     MULTIPLE LAYERS AND PROPORTIONS :    1, 0.61       2, 0.39
  6024 878-36-335      36    335.0       2464.    
     MULTIPLE LAYERS AND PROPORTIONS :    1, 0.34       2, 0.66
  6025 878-42-359      42    359.0       2467.    
     MULTIPLE LAYERS AND PROPORTIONS :    1, 0.34       2, 0.66
  6026 878-71-365      71    365.0       2502.    
     MULTIPLE LAYERS AND PROPORTIONS :    1, 0.34       2, 0.66
  6027 853-22-37       22    37.00       2515.    
  6028 853-26-336      26    336.0       2491.    
  6029 853-48-362      48    362.0       2470.    
  6030 853-56-9        56    9.000       2454.    
  6031 853-61-47       61    47.00       2458.    
  6032 853-65-357      65    357.0       2495.    
  6033 853-71-362      71    362.0       2511.    
  6034 844-43-4        43    4.000       2467.    
     MULTIPLE LAYERS AND PROPORTIONS :    1, 0.49       2, 0.51
  6035 844-48-362      48    362.0       2462.    
     MULTIPLE LAYERS AND PROPORTIONS :    1, 0.49       2, 0.51
  6036 844-56-9        56    9.000       2474.    
     MULTIPLE LAYERS AND PROPORTIONS :    1, 0.49       2, 0.51
  6037 844-61-47       61    47.00       2465.    
     MULTIPLE LAYERS AND PROPORTIONS :    1, 0.49       2, 0.51
  6038 844-65-357      65    357.0       2498.    
     MULTIPLE LAYERS AND PROPORTIONS :    1, 0.49       2, 0.51
  6039 844-71-362      71    362.0       2515.    
     MULTIPLE LAYERS AND PROPORTIONS :    1, 0.49       2, 0.51
  6040 834-16-364      16    364.0       2533.    
     MULTIPLE LAYERS AND PROPORTIONS :    1, 0.92       2, 0.08
  6041 834-26-280      26    280.0       2484.    
     MULTIPLE LAYERS AND PROPORTIONS :    1, 0.92       2, 0.08
  6042 834-43-4        43    4.000       2465.    
     MULTIPLE LAYERS AND PROPORTIONS :    1, 0.92       2, 0.08
  6043 834-56-20       56    20.00       2471.    
     MULTIPLE LAYERS AND PROPORTIONS :    1, 0.92       2, 0.08
  6044 834-60-306      60    306.0       2458.    
     MULTIPLE LAYERS AND PROPORTIONS :    1, 0.92       2, 0.08
  6045 834-65-357      65    357.0       2497.    
     MULTIPLE LAYERS AND PROPORTIONS :    1, 0.92       2, 0.08
  6046 834-71-362      71    362.0       2514.    
     MULTIPLE LAYERS AND PROPORTIONS :    1, 0.92       2, 0.08
  6047 835-65-357      65    357.0       2500.    
  6048 835-71-362      71    362.0       2518.    
  6049 815-1-365        1    365.0       2541.    
 Observation within a steady-state time step has been moved to the end of the time step.
  6050 850-17-80       17    80.00       2544.    
  6051 850-22-37       22    37.00       2543.    
  6052 850-26-285      26    285.0       2538.    
  6053 850-31-335      31    335.0       2532.    
  6054 850-38-60       38    60.00       2520.    
  6055 850-42-352      42    352.0       2509.    
  6056 850-48-338      48    338.0       2512.    
  6057 850-60-320      60    320.0       2501.    
  6058 850-65-298      65    298.0       2503.    
  6059 850-71-365      71    365.0       2504.    
  6060 1259-66-59      66    59.00       2533.    
  6061 1236-66-59      66    59.00       2562.    
  6062 1260-66-59      66    59.00       2532.    
  6063 1244-66-59      66    59.00       2536.    
  6064 1252-35-23      35    23.00       2516.    
  6065 1267-71-365     71    365.0       2476.    
  6066 1253-37-90      37    90.00       2465.    
  6067 1253-42-355     42    355.0       2463.    
  6068 1253-48-349     48    349.0       2460.    
  6069 1253-56-11      56    11.00       2455.    
  6070 1253-61-56      61    56.00       2448.    
  6071 1253-66-59      66    59.00       2441.    
  6072 1253-71-365     71    365.0       2429.    
  6073 1245-37-90      37    90.00       2438.    
  6074 1245-42-355     42    355.0       2425.    
  6075 1245-48-349     48    349.0       2420.    
  6076 1245-55-357     55    357.0       2417.    
  6077 1245-61-12      61    12.00       2408.    
  6078 1245-66-49      66    49.00       2401.    
  6079 1245-71-365     71    365.0       2392.    
  6080 1250-17-86      17    86.00       2461.    
     MULTIPLE LAYERS AND PROPORTIONS :    1, 0.42       2, 0.58
  6081 1250-32-69      32    69.00       2422.    
     MULTIPLE LAYERS AND PROPORTIONS :    1, 0.42       2, 0.58
  6082 1250-37-95      37    95.00       2405.    
     MULTIPLE LAYERS AND PROPORTIONS :    1, 0.42       2, 0.58
  6083 1250-56-19      56    19.00       2380.    
  6084 1250-61-60      61    60.00       2364.    
  6085 1251-12-296     12    296.0       2472.    
     MULTIPLE LAYERS AND PROPORTIONS :    1, 0.24       2, 0.76
  6086 1251-17-86      17    86.00       2459.    
     MULTIPLE LAYERS AND PROPORTIONS :    1, 0.24       2, 0.76
  6087 1251-32-69      32    69.00       2418.    
     MULTIPLE LAYERS AND PROPORTIONS :    1, 0.24       2, 0.76
  6088 1251-37-95      37    95.00       2401.    
     MULTIPLE LAYERS AND PROPORTIONS :    1, 0.24       2, 0.76
  6089 1251-42-356     42    356.0       2381.    
     MULTIPLE LAYERS AND PROPORTIONS :    1, 0.24       2, 0.76
  6090 1251-48-334     48    334.0       2380.    
     MULTIPLE LAYERS AND PROPORTIONS :    1, 0.24       2, 0.76
  6091 1251-56-19      56    19.00       2376.    
     MULTIPLE LAYERS AND PROPORTIONS :    1, 0.24       2, 0.76
  6092 1251-60-321     60    321.0       2362.    
     MULTIPLE LAYERS AND PROPORTIONS :    1, 0.24       2, 0.76
  6093 1251-65-298     65    298.0       2356.    
     MULTIPLE LAYERS AND PROPORTIONS :    1, 0.24       2, 0.76
  6094 1251-71-365     71    365.0       2351.    
     MULTIPLE LAYERS AND PROPORTIONS :    1, 0.24       2, 0.76
  6095 1226-48-344     48    344.0       2395.    
  6096 1226-56-19      56    19.00       2392.    
  6097 1226-61-60      61    60.00       2374.    
  6098 1226-66-25      66    25.00       2371.    
  6099 1226-71-42      71    42.00       2363.    
  6100 1195-12-297     12    297.0       2515.    
     MULTIPLE LAYERS AND PROPORTIONS :    1, 0.47       2, 0.53
  6101 1195-17-60      17    60.00       2511.    
     MULTIPLE LAYERS AND PROPORTIONS :    1, 0.47       2, 0.53
  6102 1195-32-69      32    69.00       2493.    
     MULTIPLE LAYERS AND PROPORTIONS :    1, 0.47       2, 0.53
  6103 1195-37-95      37    95.00       2484.    
     MULTIPLE LAYERS AND PROPORTIONS :    1, 0.47       2, 0.53
  6104 1195-48-344     48    344.0       2469.    
  6105 1195-56-19      56    19.00       2423.    
  6106 1195-66-25      66    25.00       2438.    
  6107 1128-70-357     70    357.0       2457.    
  6108 1128-71-365     71    365.0       2458.    
  6109 1110-17-78      17    78.00       2537.    
  6110 1110-32-70      32    70.00       2525.    
  6111 1110-37-1       37    1.000       2507.    
  6112 1137-16-357     16    357.0       2534.    
  6113 1173-66-5       66    5.000       2554.    
  6114 1173-71-365     71    365.0       2541.    
  6115 1044-16-362     16    362.0       2571.    
  6116 1044-32-69      32    69.00       2561.    
  6117 1044-37-95      37    95.00       2559.    
  6118 1044-42-356     42    356.0       2552.    
  6119 1044-48-344     48    344.0       2546.    
  6120 1044-56-20      56    20.00       2550.    
  6121 1044-61-60      61    60.00       2536.    
  6122 1044-66-25      66    25.00       2521.    
  6123 1050-71-40      71    40.00       2513.    
  6124 1045-31-349     31    349.0       2555.    
  6125 1045-37-26      37    26.00       2550.    
  6126 1045-42-354     42    354.0       2545.    
  6127 1045-48-344     48    344.0       2543.    
  6128 1045-56-17      56    17.00       2550.    
  6129 1045-60-320     60    320.0       2531.    
  6130 1045-65-298     65    298.0       2514.    
  6131 1045-71-365     71    365.0       2501.    
  6132 1046-31-349     31    349.0       2549.    
  6133 1046-42-354     42    354.0       2535.    
  6134 1046-48-344     48    344.0       2536.    
  6135 1046-56-17      56    17.00       2529.    
  6136 1046-60-320     60    320.0       2529.    
  6137 1046-65-298     65    298.0       2512.    
  6138 1046-71-365     71    365.0       2500.    
  6139 1047-31-349     31    349.0       2492.    
  6140 1047-42-354     42    354.0       2469.    
  6141 1047-48-344     48    344.0       2465.    
  6142 1047-56-17      56    17.00       2456.    
  6143 1047-60-320     60    320.0       2443.    
  6144 1047-65-298     65    298.0       2463.    
  6145 1047-71-365     71    365.0       2462.    
  6146 1059-32-70      32    70.00       2541.    
  6147 1059-56-19      56    19.00       2525.    
  6148 1059-61-54      61    54.00       2518.    
  6149 1059-66-32      66    32.00       2504.    
  6150 1070-36-283     36    283.0       2528.    
     MULTIPLE LAYERS AND PROPORTIONS :    1, 0.42       2, 0.58
  6151 1017-17-78      17    78.00       2551.    
  6152 1017-31-349     31    349.0       2541.    
  6153 1017-37-26      37    26.00       2537.    
  6154 1017-42-355     42    355.0       2531.    
  6155 1004-71-365     71    365.0       2502.    
  6156 988-2-60         2    60.00       2547.    
  6157 979-42-355      42    355.0       2538.    
     MULTIPLE LAYERS AND PROPORTIONS :    1, 0.98       2, 0.02
  6158 979-48-334      48    334.0       2535.    
     MULTIPLE LAYERS AND PROPORTIONS :    1, 0.98       2, 0.02
  6159 979-56-18       56    18.00       2530.    
     MULTIPLE LAYERS AND PROPORTIONS :    1, 0.98       2, 0.02
  6160 979-61-53       61    53.00       2526.    
     MULTIPLE LAYERS AND PROPORTIONS :    1, 0.98       2, 0.02
  6161 961-7-85         7    85.00       2553.    
  6162 961-12-60       12    60.00       2552.    
  6163 961-16-362      16    362.0       2552.    
  6164 955-61-53       61    53.00       2538.    
  6165 955-66-31       66    31.00       2528.    
  6166 925-71-365      71    365.0       2505.    
  6167 940-71-365      71    365.0       2503.    
     MULTIPLE LAYERS AND PROPORTIONS :    1, 0.18       2, 0.82
  6168 945-71-365      71    365.0       2504.    
  6169 959-66-49       66    49.00       2516.    
  6170 959-71-365      71    365.0       2504.    
  6171 922-61-42       61    42.00       2543.    
  6172 922-66-54       66    54.00       2523.    
  6173 922-71-365      71    365.0       2511.    
  6174 978-66-59       66    59.00       2532.    
  6175 978-71-365      71    365.0       2523.    
  6176 977-56-17       56    17.00       2602.    
  6177 977-61-53       61    53.00       2594.    
  6178 977-66-32       66    32.00       2580.    
  6179 973-32-70       32    70.00       2598.    
  6180 973-38-60       38    60.00       2590.    
  6181 973-56-17       56    17.00       2607.    
  6182 973-61-53       61    53.00       2599.    
  6183 954-42-354      42    354.0       2599.    
  6184 954-48-335      48    335.0       2608.    
  6185 870-12-60       12    60.00       2625.    
  6186 870-17-78       17    78.00       2621.    
  6187 870-22-89       22    89.00       2618.    
  6188 870-32-70       32    70.00       2613.    
  6189 870-37-1        37    1.000       2612.    
  6190 870-42-354      42    354.0       2609.    
  6191 869-7-171        7    171.0       2627.    
  6192 869-42-354      42    354.0       2609.    
  6193 869-56-18       56    18.00       2612.    
  6194 869-60-320      60    320.0       2607.    
  6195 869-65-299      65    299.0       2594.    
  6196 869-71-365      71    365.0       2580.    
  6197 915-66-53       66    53.00       2565.    
  6198 915-71-365      71    365.0       2556.    
  6199 912-66-41       66    41.00       2539.    
  6200 912-71-365      71    365.0       2518.    
  6201 875-2-86         2    86.00       2589.    
  6202 879-61-53       61    53.00       2579.    
  6203 879-66-46       66    46.00       2541.    
  6204 879-71-365      71    365.0       2540.    
  6205 881-2-87         2    87.00       2569.    
  6206 891-48-334      48    334.0       2541.    
  6207 891-56-18       56    18.00       2538.    
  6208 891-61-62       61    62.00       2530.    
  6209 891-66-32       66    32.00       2519.    
  6210 891-71-64       71    64.00       2506.    
  6211 876-42-355      42    355.0       2552.    
     MULTIPLE LAYERS AND PROPORTIONS :    1, 0.35       2, 0.65
  6212 876-48-334      48    334.0       2539.    
     MULTIPLE LAYERS AND PROPORTIONS :    1, 0.35       2, 0.65
  6213 876-56-19       56    19.00       2544.    
     MULTIPLE LAYERS AND PROPORTIONS :    1, 0.35       2, 0.65
  6214 876-61-62       61    62.00       2538.    
     MULTIPLE LAYERS AND PROPORTIONS :    1, 0.35       2, 0.65
  6215 876-66-32       66    32.00       2526.    
     MULTIPLE LAYERS AND PROPORTIONS :    1, 0.35       2, 0.65
  6216 866-66-32       66    32.00       2529.    
  6217 866-71-64       71    64.00       2515.    
  6218 873-33-328      33    328.0       2565.    
  6219 918-42-355      42    355.0       2544.    
     MULTIPLE LAYERS AND PROPORTIONS :    1, 0.72       2, 0.28
  6220 906-37-28       37    28.00       2539.    
     MULTIPLE LAYERS AND PROPORTIONS :    1, 0.33       2, 0.42       3, 0.25
  6221 923-42-355      42    355.0       2541.    
  6222 923-48-334      48    334.0       2538.    
  6223 923-56-18       56    18.00       2533.    
  6224 849-42-356      42    356.0       2552.    
  6225 849-56-18       56    18.00       2543.    
  6226 3417-32-69      32    69.00       2618.    
     MULTIPLE LAYERS AND PROPORTIONS :    2, 0.14       3, 0.86
  6227 3417-35-23      35    23.00       2607.    
     MULTIPLE LAYERS AND PROPORTIONS :    2, 0.14       3, 0.86
  6228 3417-42-354     42    354.0       2615.    
     MULTIPLE LAYERS AND PROPORTIONS :    2, 0.14       3, 0.86
  6229 3417-48-335     48    335.0       2618.    
     MULTIPLE LAYERS AND PROPORTIONS :    2, 0.14       3, 0.86
  6230 3417-56-17      56    17.00       2606.    
     MULTIPLE LAYERS AND PROPORTIONS :    2, 0.14       3, 0.86
  6231 3417-61-53      61    53.00       2601.    
     MULTIPLE LAYERS AND PROPORTIONS :    2, 0.14       3, 0.86
  6232 1921-16-362     16    362.0       2735.    
  6233 1229-36-319     36    319.0       2700.    
  6234 1202-42-362     42    362.0       2739.    
  6235 1202-48-336     48    336.0       2748.    
  6236 1164-2-93        2    93.00       2771.    
  6237 1164-16-300     16    300.0       2748.    
  6238 1164-27-12      27    12.00       2758.    
  6239 1164-48-336     48    336.0       2788.    
  6240 1164-56-17      56    17.00       2792.    
  6241 1164-61-60      61    60.00       2780.    
  6242 1125-71-356     71    356.0       2768.    
  6243 1123-71-53      71    53.00       2768.    
  6244 1543-2-90        2    90.00       2922.    
  6245 1543-56-19      56    19.00       2860.    
  6246 1543-66-26      66    26.00       2873.    
  6247 1084-48-338     48    338.0       2852.    
  6248 1067-71-63      71    63.00       2781.    
  6249 1066-71-63      71    63.00       2777.    
  6250 1544-2-88        2    88.00       2878.    
  6251 1544-12-324     12    324.0       2840.    
  6252 1593-61-60      61    60.00       2797.    
  6253 1593-66-26      66    26.00       2774.    
  6254 1069-71-365     71    365.0       2691.    
  6255 1052-56-17      56    17.00       2728.    
  6256 1052-66-26      66    26.00       2705.    
  6257 989-66-20       66    20.00       2704.    
  6258 966-22-60       22    60.00       2729.    
  6259 987-12-324      12    324.0       2803.    
  6260 987-22-33       22    33.00       2814.    
  6261 987-27-12       27    12.00       2810.    
  6262 987-66-20       66    20.00       2825.    
  6263 858-71-63       71    63.00       2702.    
  6264 890-42-362      42    362.0       2717.    
     MULTIPLE LAYERS AND PROPORTIONS :    2, 0.81       3, 0.19
  6265 890-48-338      48    338.0       2730.    
     MULTIPLE LAYERS AND PROPORTIONS :    2, 0.81       3, 0.19
  6266 890-56-19       56    19.00       2730.    
     MULTIPLE LAYERS AND PROPORTIONS :    2, 0.81       3, 0.19
  6267 890-61-60       61    60.00       2726.    
     MULTIPLE LAYERS AND PROPORTIONS :    2, 0.81       3, 0.19
  6268 890-66-20       66    20.00       2715.    
     MULTIPLE LAYERS AND PROPORTIONS :    2, 0.81       3, 0.19
  6269 908-71-365      71    365.0       2689.    
  6270 667-17-5        17    5.000       2504.    
  6271 667-22-1        22    1.000       2502.    
  6272 667-27-14       27    14.00       2494.    
  6273 667-31-350      31    350.0       2499.    
  6274 667-37-340      37    340.0       2494.    
  6275 667-42-351      42    351.0       2499.    
  6276 667-48-348      48    348.0       2498.    
  6277 652-27-14       27    14.00       2504.    
  6278 652-56-17       56    17.00       2507.    
  6279 652-66-20       66    20.00       2507.    
  6280 614-27-14       27    14.00       2526.    
  6281 613-56-17       56    17.00       2525.    
  6282 641-1-260        1    260.0       2528.    
 Observation within a steady-state time step has been moved to the end of the time step.
  6283 641-26-1        26    1.000       2539.    
  6284 641-56-18       56    18.00       2538.    
  6285 641-66-31       66    31.00       2538.    
  6286 793-6-289        6    289.0       2382.    
     MULTIPLE LAYERS AND PROPORTIONS :    2, 0.19       3, 0.81
  6287 793-48-348      48    348.0       2377.    
     MULTIPLE LAYERS AND PROPORTIONS :    2, 0.19       3, 0.81
  6288 793-61-25       61    25.00       2381.    
     MULTIPLE LAYERS AND PROPORTIONS :    2, 0.19       3, 0.81
  6289 793-65-357      65    357.0       2380.    
     MULTIPLE LAYERS AND PROPORTIONS :    2, 0.19       3, 0.81
  6290 793-71-365      71    365.0       2382.    
     MULTIPLE LAYERS AND PROPORTIONS :    2, 0.19       3, 0.81
  6291 762-56-18       56    18.00       2383.    
  6292 762-61-61       61    61.00       2384.    
  6293 762-66-34       66    34.00       2383.    
  6294 758-48-348      48    348.0       2397.    
     MULTIPLE LAYERS AND PROPORTIONS :    2, 0.23       3, 0.77
  6295 758-55-353      55    353.0       2400.    
     MULTIPLE LAYERS AND PROPORTIONS :    2, 0.23       3, 0.77
  6296 758-61-25       61    25.00       2401.    
     MULTIPLE LAYERS AND PROPORTIONS :    2, 0.23       3, 0.77
  6297 758-65-362      65    362.0       2400.    
     MULTIPLE LAYERS AND PROPORTIONS :    2, 0.23       3, 0.77
  6298 758-71-365      71    365.0       2401.    
     MULTIPLE LAYERS AND PROPORTIONS :    2, 0.23       3, 0.77
  6299 766-10-104      10    104.0       2408.    
  6300 773-36-156      36    156.0       2387.    
  6301 722-8-276        8    276.0       2447.    
  6302 722-12-360      12    360.0       2448.    
  6303 722-22-3        22    3.000       2447.    
  6304 741-65-362      65    362.0       2421.    
  6305 741-71-365      71    365.0       2422.    
  6306 738-65-362      65    362.0       2422.    
  6307 738-71-365      71    365.0       2422.    
  6308 743-65-362      65    362.0       2421.    
  6309 743-71-365      71    365.0       2421.    
  6310 740-65-362      65    362.0       2421.    
  6311 740-71-365      71    365.0       2421.    
  6312 737-22-3        22    3.000       2416.    
  6313 737-48-348      48    348.0       2416.    
  6314 737-61-25       61    25.00       2418.    
  6315 737-65-362      65    362.0       2418.    
  6316 737-71-365      71    365.0       2418.    
  6317 723-12-180      12    180.0       2416.    
  6318 723-17-9        17    9.000       2414.    
  6319 723-22-1        22    1.000       2414.    
  6320 723-32-85       32    85.00       2411.    
  6321 748-61-61       61    61.00       2238.    
  6322 748-66-33       66    33.00       2227.    
  6323 714-56-19       56    19.00       2237.    
  6324 714-61-61       61    61.00       2235.    
  6325 715-56-17       56    17.00       2450.    
  6326 715-61-62       61    62.00       2457.    
  6327 715-66-35       66    35.00       2456.    
  6328 713-56-17       56    17.00       2455.    
  6329 713-66-35       66    35.00       2454.    
  6330 702-65-362      65    362.0       2463.    
  6331 702-71-365      71    365.0       2463.    
  6332 700-36-164      36    164.0       2460.    
  6333 700-55-353      55    353.0       2466.    
  6334 700-61-25       61    25.00       2467.    
  6335 700-65-362      65    362.0       2466.    
  6336 700-71-365      71    365.0       2467.    
  6337 671-27-14       27    14.00       2489.    
  6338 671-55-353      55    353.0       2494.    
  6339 671-61-25       61    25.00       2495.    
  6340 656-12-178      12    178.0       2494.    
  6341 656-56-17       56    17.00       2499.    
  6342 656-66-20       66    20.00       2499.    
  6343 656-71-365      71    365.0       2499.    
  6344 655-26-362      26    362.0       2408.    
  6345 655-32-85       32    85.00       2406.    
  6346 655-35-53       35    53.00       2401.    
  6347 655-56-18       56    18.00       2407.    
  6348 689-66-33       66    33.00       2257.    
  6349 688-71-365      71    365.0       2245.    
  6350 682-56-18       56    18.00       2351.    
  6351 636-56-18       56    18.00       2491.    
  6352 636-61-62       61    62.00       2491.    
  6353 636-66-20       66    20.00       2492.    
  6354 648-71-365      71    365.0       2482.    
  6355 601-48-348      48    348.0       2513.    
  6356 601-55-353      55    353.0       2504.    
  6357 601-61-34       61    34.00       2505.    
  6358 601-65-362      65    362.0       2505.    
  6359 601-71-365      71    365.0       2505.    
  6360 632-56-17       56    17.00       2501.    
  6361 632-66-20       66    20.00       2500.    
  6362 602-22-1        22    1.000       2498.    
  6363 579-56-18       56    18.00       2514.    
  6364 598-42-351      42    351.0       2491.    
  6365 598-48-348      48    348.0       2490.    
  6366 598-56-18       56    18.00       2494.    
  6367 598-60-323      60    323.0       2494.    
  6368 598-65-300      65    300.0       2493.    
  6369 598-71-365      71    365.0       2495.    
  6370 739-37-15       37    15.00       2205.    
  6371 739-48-341      48    341.0       2200.    
  6372 739-55-353      55    353.0       2197.    
  6373 739-61-34       61    34.00       2193.    
  6374 739-65-362      65    362.0       2190.    
  6375 739-71-365      71    365.0       2186.    
  6376 720-12-152      12    152.0       2215.    
  6377 720-17-9        17    9.000       2226.    
  6378 720-21-364      21    364.0       2222.    
  6379 720-66-34       66    34.00       2202.    
  6380 747-48-341      48    341.0       2159.    
  6381 747-55-346      55    346.0       2172.    
  6382 747-61-34       61    34.00       2161.    
  6383 747-65-362      65    362.0       2158.    
  6384 747-71-365      71    365.0       2157.    
  6385 717-27-13       27    13.00       2532.    
  6386 644-42-343      42    343.0       2450.    
  6387 625-42-343      42    343.0       2439.    
     MULTIPLE LAYERS AND PROPORTIONS :    2, 0.23       3, 0.77
  6388 620-42-343      42    343.0       2444.    
  6389 634-35-29       35    29.00       2574.    
  6390 634-42-322      42    322.0       2559.    
  6391 554-42-350      42    350.0       2595.    
  6392 561-42-349      42    349.0       2661.    
  6393 535-42-350      42    350.0       2638.    
  6394 577-22-34       22    34.00       2586.    
  6395 577-27-59       27    59.00       2549.    
  6396 577-31-339      31    339.0       2500.    
  6397 577-37-1        37    1.000       2481.    
  6398 577-42-343      42    343.0       2452.    
  6399 577-48-343      48    343.0       2460.    
  6400 577-56-16       56    16.00       2425.    
  6401 577-60-322      60    322.0       2411.    
  6402 577-65-302      65    302.0       2452.    
  6403 577-71-365      71    365.0       2473.    
  6404 581-1-365        1    365.0       2613.    
 Observation within a steady-state time step has been moved to the end of the time step.
  6405 582-42-343      42    343.0       2423.    
     MULTIPLE LAYERS AND PROPORTIONS :    2, 0.16       3, 0.84
  6406 582-56-16       56    16.00       2421.    
     MULTIPLE LAYERS AND PROPORTIONS :    2, 0.16       3, 0.84
  6407 586-27-56       27    56.00       2560.    
     MULTIPLE LAYERS AND PROPORTIONS :    2, 0.04       3, 0.96
  6408 586-37-316      37    316.0       2455.    
     MULTIPLE LAYERS AND PROPORTIONS :    2, 0.04       3, 0.96
  6409 586-42-343      42    343.0       2436.    
     MULTIPLE LAYERS AND PROPORTIONS :    2, 0.04       3, 0.96
  6410 586-56-16       56    16.00       2414.    
     MULTIPLE LAYERS AND PROPORTIONS :    2, 0.04       3, 0.96
  6411 586-61-55       61    55.00       2392.    
     MULTIPLE LAYERS AND PROPORTIONS :    2, 0.04       3, 0.96
  6412 586-66-46       66    46.00       2450.    
     MULTIPLE LAYERS AND PROPORTIONS :    2, 0.04       3, 0.96
  6413 553-22-39       22    39.00       2593.    
     MULTIPLE LAYERS AND PROPORTIONS :    2, 0.66       3, 0.34
  6414 553-26-299      26    299.0       2554.    
     MULTIPLE LAYERS AND PROPORTIONS :    2, 0.66       3, 0.34
  6415 553-31-348      31    348.0       2505.    
     MULTIPLE LAYERS AND PROPORTIONS :    2, 0.66       3, 0.34
  6416 553-36-21       36    21.00       2455.    
     MULTIPLE LAYERS AND PROPORTIONS :    2, 0.66       3, 0.34
  6417 584-22-44       22    44.00       2584.    
  6418 584-27-56       27    56.00       2547.    
  6419 584-31-339      31    339.0       2495.    
  6420 584-37-1        37    1.000       2474.    
  6421 584-42-343      42    343.0       2433.    
  6422 584-56-16       56    16.00       2410.    
  6423 584-61-55       61    55.00       2391.    
  6424 584-66-46       66    46.00       2446.    
  6425 585-22-44       22    44.00       2583.    
  6426 585-27-56       27    56.00       2547.    
  6427 585-31-339      31    339.0       2498.    
  6428 585-37-1        37    1.000       2467.    
  6429 585-42-343      42    343.0       2437.    
  6430 585-56-16       56    16.00       2417.    
  6431 585-61-55       61    55.00       2400.    
  6432 585-66-46       66    46.00       2434.    
  6433 557-38-1        38    1.000       2450.    
     MULTIPLE LAYERS AND PROPORTIONS :    2, 0.17       3, 0.83
  6434 557-42-343      42    343.0       2435.    
     MULTIPLE LAYERS AND PROPORTIONS :    2, 0.17       3, 0.83
  6435 557-66-46       66    46.00       2446.    
     MULTIPLE LAYERS AND PROPORTIONS :    2, 0.17       3, 0.83
  6436 548-1-365        1    365.0       2625.    
 Observation within a steady-state time step has been moved to the end of the time step.
  6437 575-17-55       17    55.00       2606.    
  6438 575-22-44       22    44.00       2585.    
  6439 575-26-299      26    299.0       2563.    
  6440 563-17-55       17    55.00       2608.    
     MULTIPLE LAYERS AND PROPORTIONS :    2, 0.17       3, 0.83
  6441 563-22-44       22    44.00       2582.    
     MULTIPLE LAYERS AND PROPORTIONS :    2, 0.17       3, 0.83
  6442 563-66-46       66    46.00       2450.    
     MULTIPLE LAYERS AND PROPORTIONS :    2, 0.17       3, 0.83
  6443 556-26-299      26    299.0       2555.    
  6444 556-31-335      31    335.0       2494.    
  6445 556-36-317      36    317.0       2441.    
  6446 556-56-10       56    10.00       2417.    
  6447 556-61-56       61    56.00       2388.    
  6448 556-66-34       66    34.00       2437.    
  6449 558-26-299      26    299.0       2562.    
     MULTIPLE LAYERS AND PROPORTIONS :    2, 0.08       3, 0.92
  6450 558-31-317      31    317.0       2494.    
     MULTIPLE LAYERS AND PROPORTIONS :    2, 0.08       3, 0.92
  6451 558-38-319      38    319.0       2491.    
     MULTIPLE LAYERS AND PROPORTIONS :    2, 0.08       3, 0.92
  6452 572-1-365        1    365.0       2603.    
 Observation within a steady-state time step has been moved to the end of the time step.
  6453 543-1-365        1    365.0       2605.    
 Observation within a steady-state time step has been moved to the end of the time step.
  6454 529-48-336      48    336.0       2480.    
     MULTIPLE LAYERS AND PROPORTIONS :    2, 0.04       3, 0.96
  6455 529-56-10       56    10.00       2437.    
     MULTIPLE LAYERS AND PROPORTIONS :    2, 0.04       3, 0.96
  6456 529-61-56       61    56.00       2410.    
     MULTIPLE LAYERS AND PROPORTIONS :    2, 0.04       3, 0.96
  6457 529-66-34       66    34.00       2445.    
     MULTIPLE LAYERS AND PROPORTIONS :    2, 0.04       3, 0.96
  6458 798-1-365        1    365.0       2539.    
 Observation within a steady-state time step has been moved to the end of the time step.
  6459 794-1-77         1    77.00       2534.    
 Observation within a steady-state time step has been moved to the end of the time step.
  6460 772-3-59         3    59.00       2562.    
  6461 792-1-365        1    365.0       2540.    
 Observation within a steady-state time step has been moved to the end of the time step.
  6462 790-1-274        1    274.0       2535.    
 Observation within a steady-state time step has been moved to the end of the time step.
  6463 790-6-286        6    286.0       2531.    
  6464 790-11-258      11    258.0       2529.    
  6465 790-17-4        17    4.000       2524.    
  6466 790-22-34       22    34.00       2517.    
  6467 790-27-53       27    53.00       2506.    
  6468 790-31-335      31    335.0       2490.    
  6469 790-37-32       37    32.00       2471.    
  6470 790-42-351      42    351.0       2453.    
  6471 790-48-337      48    337.0       2445.    
  6472 790-61-54       61    54.00       2443.    
  6473 783-1-274        1    274.0       2535.    
 Observation within a steady-state time step has been moved to the end of the time step.
  6474 783-6-288        6    288.0       2532.    
  6475 783-11-258      11    258.0       2528.    
  6476 783-17-4        17    4.000       2528.    
  6477 783-17-47       17    47.00       2528.    
  6478 783-22-34       22    34.00       2521.    
  6479 783-26-280      26    280.0       2507.    
  6480 783-31-335      31    335.0       2498.    
  6481 783-42-351      42    351.0       2458.    
  6482 783-61-54       61    54.00       2445.    
  6483 799-1-365        1    365.0       2542.    
 Observation within a steady-state time step has been moved to the end of the time step.
  6484 774-65-357      65    357.0       2494.    
  6485 774-71-362      71    362.0       2519.    
  6486 751-1-365        1    365.0       2570.    
 Observation within a steady-state time step has been moved to the end of the time step.
  6487 746-22-38       22    38.00       2536.    
     MULTIPLE LAYERS AND PROPORTIONS :    1, 0.47       2, 0.53
  6488 746-26-280      26    280.0       2500.    
     MULTIPLE LAYERS AND PROPORTIONS :    1, 0.47       2, 0.53
  6489 746-32-41       32    41.00       2498.    
     MULTIPLE LAYERS AND PROPORTIONS :    1, 0.47       2, 0.53
  6490 746-48-362      48    362.0       2477.    
     MULTIPLE LAYERS AND PROPORTIONS :    1, 0.47       2, 0.53
  6491 746-56-9        56    9.000       2486.    
     MULTIPLE LAYERS AND PROPORTIONS :    1, 0.47       2, 0.53
  6492 746-61-47       61    47.00       2486.    
     MULTIPLE LAYERS AND PROPORTIONS :    1, 0.47       2, 0.53
  6493 746-65-357      65    357.0       2520.    
     MULTIPLE LAYERS AND PROPORTIONS :    1, 0.47       2, 0.53
  6494 746-71-362      71    362.0       2538.    
     MULTIPLE LAYERS AND PROPORTIONS :    1, 0.47       2, 0.53
  6495 745-1-55         1    55.00       2556.    
 Observation within a steady-state time step has been moved to the end of the time step.
  6496 754-48-342      48    342.0       2454.    
  6497 754-56-18       56    18.00       2468.    
  6498 754-61-53       61    53.00       2463.    
  6499 754-66-32       66    32.00       2491.    
  6500 721-12-313      12    313.0       2560.    
  6501 721-17-52       17    52.00       2559.    
  6502 721-22-38       22    38.00       2545.    
  6503 721-26-287      26    287.0       2529.    
  6504 721-31-335      31    335.0       2519.    
  6505 721-36-318      36    318.0       2501.    
  6506 721-42-350      42    350.0       2487.    
  6507 721-48-343      48    343.0       2496.    
  6508 721-56-19       56    19.00       2501.    
  6509 721-61-55       61    55.00       2517.    
  6510 721-66-46       66    46.00       2551.    
  6511 729-43-4        43    4.000       2481.    
     MULTIPLE LAYERS AND PROPORTIONS :    1, 0.47       2, 0.53
  6512 729-48-362      48    362.0       2483.    
     MULTIPLE LAYERS AND PROPORTIONS :    1, 0.47       2, 0.53
  6513 729-56-9        56    9.000       2494.    
     MULTIPLE LAYERS AND PROPORTIONS :    1, 0.47       2, 0.53
  6514 729-66-1        66    1.000       2530.    
     MULTIPLE LAYERS AND PROPORTIONS :    1, 0.47       2, 0.53
  6515 729-71-362      71    362.0       2550.    
     MULTIPLE LAYERS AND PROPORTIONS :    1, 0.47       2, 0.53
  6516 706-17-52       17    52.00       2567.    
     MULTIPLE LAYERS AND PROPORTIONS :    1, 0.87       2, 0.13
  6517 706-22-37       22    37.00       2551.    
     MULTIPLE LAYERS AND PROPORTIONS :    1, 0.87       2, 0.13
  6518 706-27-62       27    62.00       2534.    
     MULTIPLE LAYERS AND PROPORTIONS :    1, 0.87       2, 0.13
  6519 706-31-335      31    335.0       2512.    
     MULTIPLE LAYERS AND PROPORTIONS :    1, 0.87       2, 0.13
  6520 706-43-4        43    4.000       2494.    
     MULTIPLE LAYERS AND PROPORTIONS :    1, 0.87       2, 0.13
  6521 706-48-362      48    362.0       2496.    
     MULTIPLE LAYERS AND PROPORTIONS :    1, 0.87       2, 0.13
  6522 706-56-9        56    9.000       2500.    
     MULTIPLE LAYERS AND PROPORTIONS :    1, 0.87       2, 0.13
  6523 706-61-47       61    47.00       2502.    
     MULTIPLE LAYERS AND PROPORTIONS :    1, 0.87       2, 0.13
  6524 706-65-357      65    357.0       2537.    
     MULTIPLE LAYERS AND PROPORTIONS :    1, 0.87       2, 0.13
  6525 706-71-362      71    362.0       2557.    
     MULTIPLE LAYERS AND PROPORTIONS :    1, 0.87       2, 0.13
  6526 694-17-52       17    52.00       2576.    
  6527 694-22-38       22    38.00       2562.    
  6528 694-26-285      26    285.0       2534.    
  6529 694-31-344      31    344.0       2513.    
  6530 694-36-354      36    354.0       2476.    
  6531 694-43-4        43    4.000       2493.    
  6532 694-48-362      48    362.0       2498.    
  6533 694-56-9        56    9.000       2505.    
  6534 694-61-47       61    47.00       2504.    
  6535 694-65-357      65    357.0       2533.    
  6536 694-71-362      71    362.0       2554.    
  6537 716-1-365        1    365.0       2575.    
 Observation within a steady-state time step has been moved to the end of the time step.
  6538 719-12-121      12    121.0       2562.    
     MULTIPLE LAYERS AND PROPORTIONS :    1, 0.93       2, 0.07
  6539 708-8-302        8    302.0       2566.    
     MULTIPLE LAYERS AND PROPORTIONS :    1, 0.83       2, 0.17
  6540 708-12-64       12    64.00       2563.    
     MULTIPLE LAYERS AND PROPORTIONS :    1, 0.83       2, 0.17
  6541 708-17-3        17    3.000       2561.    
     MULTIPLE LAYERS AND PROPORTIONS :    1, 0.83       2, 0.17
  6542 708-22-38       22    38.00       2547.    
     MULTIPLE LAYERS AND PROPORTIONS :    1, 0.83       2, 0.17
  6543 708-26-287      26    287.0       2532.    
     MULTIPLE LAYERS AND PROPORTIONS :    1, 0.83       2, 0.17
  6544 708-31-335      31    335.0       2523.    
     MULTIPLE LAYERS AND PROPORTIONS :    1, 0.83       2, 0.17
  6545 708-42-350      42    350.0       2497.    
     MULTIPLE LAYERS AND PROPORTIONS :    1, 0.83       2, 0.17
  6546 708-48-343      48    343.0       2502.    
     MULTIPLE LAYERS AND PROPORTIONS :    1, 0.83       2, 0.17
  6547 685-1-365        1    365.0       2591.    
 Observation within a steady-state time step has been moved to the end of the time step.
  6548 674-22-38       22    38.00       2556.    
     MULTIPLE LAYERS AND PROPORTIONS :    1, 0.84       2, 0.16
  6549 674-31-344      31    344.0       2533.    
     MULTIPLE LAYERS AND PROPORTIONS :    1, 0.84       2, 0.16
  6550 674-42-350      42    350.0       2506.    
     MULTIPLE LAYERS AND PROPORTIONS :    1, 0.84       2, 0.16
  6551 674-48-343      48    343.0       2513.    
     MULTIPLE LAYERS AND PROPORTIONS :    1, 0.84       2, 0.16
  6552 674-56-19       56    19.00       2518.    
     MULTIPLE LAYERS AND PROPORTIONS :    1, 0.84       2, 0.16
  6553 674-61-60       61    60.00       2556.    
     MULTIPLE LAYERS AND PROPORTIONS :    1, 0.84       2, 0.16
  6554 674-66-48       66    48.00       2580.    
     MULTIPLE LAYERS AND PROPORTIONS :    1, 0.84       2, 0.16
  6555 676-27-10       27    10.00       2543.    
     MULTIPLE LAYERS AND PROPORTIONS :    1, 0.54       2, 0.46
  6556 687-17-3        17    3.000       2567.    
     MULTIPLE LAYERS AND PROPORTIONS :    1, 0.69       2, 0.31
  6557 687-22-38       22    38.00       2551.    
     MULTIPLE LAYERS AND PROPORTIONS :    1, 0.69       2, 0.31
  6558 687-27-11       27    11.00       2542.    
     MULTIPLE LAYERS AND PROPORTIONS :    1, 0.69       2, 0.31
  6559 687-42-350      42    350.0       2486.    
     MULTIPLE LAYERS AND PROPORTIONS :    1, 0.69       2, 0.31
  6560 687-48-343      48    343.0       2502.    
     MULTIPLE LAYERS AND PROPORTIONS :    1, 0.69       2, 0.31
  6561 687-56-19       56    19.00       2504.    
     MULTIPLE LAYERS AND PROPORTIONS :    1, 0.69       2, 0.31
  6562 687-61-55       61    55.00       2542.    
     MULTIPLE LAYERS AND PROPORTIONS :    1, 0.69       2, 0.31
  6563 687-66-46       66    46.00       2569.    
     MULTIPLE LAYERS AND PROPORTIONS :    1, 0.69       2, 0.31
  6564 686-56-19       56    19.00       2495.    
     MULTIPLE LAYERS AND PROPORTIONS :    1, 0.21       2, 0.32       3, 0.47
  6565 686-66-46       66    46.00       2558.    
     MULTIPLE LAYERS AND PROPORTIONS :    1, 0.21       2, 0.32       3, 0.47
  6566 677-17-53       17    53.00       2576.    
  6567 677-22-38       22    38.00       2559.    
  6568 677-26-299      26    299.0       2550.    
  6569 677-31-337      31    337.0       2534.    
  6570 677-37-336      37    336.0       2522.    
  6571 677-42-350      42    350.0       2496.    
  6572 677-48-343      48    343.0       2506.    
  6573 677-56-19       56    19.00       2507.    
  6574 677-61-55       61    55.00       2540.    
  6575 677-66-46       66    46.00       2576.    
  6576 675-5-102        5    102.0       2577.    
  6577 675-11-305      11    305.0       2574.    
  6578 675-27-11       27    11.00       2549.    
  6579 665-17-53       17    53.00       2574.    
  6580 665-22-38       22    38.00       2554.    
  6581 665-27-11       27    11.00       2551.    
  6582 665-36-357      36    357.0       2509.    
  6583 665-42-350      42    350.0       2499.    
  6584 665-56-19       56    19.00       2510.    
  6585 665-61-55       61    55.00       2552.    
  6586 665-66-46       66    46.00       2586.    
  6587 657-48-343      48    343.0       2507.    
  6588 649-3-294        3    294.0       2582.    
  6589 649-6-290        6    290.0       2584.    
  6590 649-11-307      11    307.0       2579.    
  6591 649-17-3        17    3.000       2574.    
  6592 649-22-38       22    38.00       2549.    
  6593 649-26-287      26    287.0       2552.    
  6594 649-31-335      31    335.0       2532.    
  6595 649-38-60       38    60.00       2521.    
  6596 649-42-350      42    350.0       2502.    
  6597 649-48-343      48    343.0       2512.    
  6598 649-56-19       56    19.00       2516.    
  6599 649-61-55       61    55.00       2570.    
  6600 651-3-294        3    294.0       2582.    
  6601 651-6-290        6    290.0       2584.    
  6602 651-11-307      11    307.0       2579.    
  6603 651-17-52       17    52.00       2575.    
  6604 651-27-11       27    11.00       2555.    
  6605 651-42-350      42    350.0       2502.    
  6606 651-48-343      48    343.0       2513.    
  6607 651-56-19       56    19.00       2517.    
  6608 651-61-60       61    60.00       2571.    
  6609 651-66-46       66    46.00       2592.    
  6610 679-17-52       17    52.00       2569.    
     MULTIPLE LAYERS AND PROPORTIONS :    1, 0.95       2, 0.05
  6611 679-22-37       22    37.00       2550.    
     MULTIPLE LAYERS AND PROPORTIONS :    1, 0.95       2, 0.05
  6612 679-26-336      26    336.0       2534.    
     MULTIPLE LAYERS AND PROPORTIONS :    1, 0.95       2, 0.05
  6613 679-48-362      48    362.0       2499.    
     MULTIPLE LAYERS AND PROPORTIONS :    1, 0.95       2, 0.05
  6614 679-56-9        56    9.000       2503.    
     MULTIPLE LAYERS AND PROPORTIONS :    1, 0.95       2, 0.05
  6615 679-61-47       61    47.00       2506.    
     MULTIPLE LAYERS AND PROPORTIONS :    1, 0.95       2, 0.05
  6616 679-65-357      65    357.0       2539.    
     MULTIPLE LAYERS AND PROPORTIONS :    1, 0.95       2, 0.05
  6617 679-71-362      71    362.0       2559.    
     MULTIPLE LAYERS AND PROPORTIONS :    1, 0.95       2, 0.05
  6618 680-17-52       17    52.00       2574.    
     MULTIPLE LAYERS AND PROPORTIONS :    1, 0.52       2, 0.48
  6619 680-22-82       22    82.00       2554.    
     MULTIPLE LAYERS AND PROPORTIONS :    1, 0.52       2, 0.48
  6620 680-27-62       27    62.00       2543.    
     MULTIPLE LAYERS AND PROPORTIONS :    1, 0.52       2, 0.48
  6621 680-31-335      31    335.0       2516.    
     MULTIPLE LAYERS AND PROPORTIONS :    1, 0.52       2, 0.48
  6622 680-39-60       39    60.00       2491.    
     MULTIPLE LAYERS AND PROPORTIONS :    1, 0.52       2, 0.48
  6623 680-43-4        43    4.000       2504.    
     MULTIPLE LAYERS AND PROPORTIONS :    1, 0.52       2, 0.48
  6624 680-48-362      48    362.0       2506.    
     MULTIPLE LAYERS AND PROPORTIONS :    1, 0.52       2, 0.48
  6625 680-56-9        56    9.000       2508.    
     MULTIPLE LAYERS AND PROPORTIONS :    1, 0.52       2, 0.48
  6626 680-61-47       61    47.00       2508.    
     MULTIPLE LAYERS AND PROPORTIONS :    1, 0.52       2, 0.48
  6627 680-65-357      65    357.0       2540.    
     MULTIPLE LAYERS AND PROPORTIONS :    1, 0.52       2, 0.48
  6628 680-71-362      71    362.0       2560.    
     MULTIPLE LAYERS AND PROPORTIONS :    1, 0.52       2, 0.48
  6629 684-17-52       17    52.00       2569.    
     MULTIPLE LAYERS AND PROPORTIONS :    1, 0.73       2, 0.27
  6630 684-22-37       22    37.00       2552.    
     MULTIPLE LAYERS AND PROPORTIONS :    1, 0.73       2, 0.27
  6631 684-26-349      26    349.0       2529.    
     MULTIPLE LAYERS AND PROPORTIONS :    1, 0.73       2, 0.27
  6632 684-31-335      31    335.0       2515.    
     MULTIPLE LAYERS AND PROPORTIONS :    1, 0.73       2, 0.27
  6633 684-48-362      48    362.0       2497.    
     MULTIPLE LAYERS AND PROPORTIONS :    1, 0.73       2, 0.27
  6634 684-56-9        56    9.000       2504.    
     MULTIPLE LAYERS AND PROPORTIONS :    1, 0.73       2, 0.27
  6635 684-66-1        66    1.000       2542.    
     MULTIPLE LAYERS AND PROPORTIONS :    1, 0.73       2, 0.27
  6636 684-71-362      71    362.0       2561.    
     MULTIPLE LAYERS AND PROPORTIONS :    1, 0.73       2, 0.27
  6637 664-1-365        1    365.0       2593.    
 Observation within a steady-state time step has been moved to the end of the time step.
  6638 654-12-67       12    67.00       2578.    
     MULTIPLE LAYERS AND PROPORTIONS :    1, 0.83       2, 0.17
  6639 654-17-52       17    52.00       2574.    
     MULTIPLE LAYERS AND PROPORTIONS :    1, 0.83       2, 0.17
  6640 654-22-37       22    37.00       2548.    
     MULTIPLE LAYERS AND PROPORTIONS :    1, 0.83       2, 0.17
  6641 654-26-285      26    285.0       2532.    
     MULTIPLE LAYERS AND PROPORTIONS :    1, 0.83       2, 0.17
  6642 654-31-335      31    335.0       2524.    
     MULTIPLE LAYERS AND PROPORTIONS :    1, 0.83       2, 0.17
  6643 654-38-32       38    32.00       2520.    
     MULTIPLE LAYERS AND PROPORTIONS :    1, 0.83       2, 0.17
  6644 654-42-349      42    349.0       2476.    
     MULTIPLE LAYERS AND PROPORTIONS :    1, 0.83       2, 0.17
  6645 654-48-343      48    343.0       2493.    
     MULTIPLE LAYERS AND PROPORTIONS :    1, 0.83       2, 0.17
  6646 654-56-19       56    19.00       2506.    
     MULTIPLE LAYERS AND PROPORTIONS :    1, 0.83       2, 0.17
  6647 654-61-60       61    60.00       2512.    
     MULTIPLE LAYERS AND PROPORTIONS :    1, 0.83       2, 0.17
  6648 654-66-49       66    49.00       2540.    
     MULTIPLE LAYERS AND PROPORTIONS :    1, 0.83       2, 0.17
  6649 658-32-41       32    41.00       2519.    
  6650 658-36-357      36    357.0       2482.    
  6651 658-43-4        43    4.000       2484.    
  6652 658-48-362      48    362.0       2493.    
  6653 658-56-9        56    9.000       2515.    
  6654 658-61-47       61    47.00       2509.    
  6655 658-65-357      65    357.0       2542.    
  6656 658-71-362      71    362.0       2564.    
  6657 673-35-360      35    360.0       2507.    
     MULTIPLE LAYERS AND PROPORTIONS :    1, 0.32       2, 0.68
  6658 673-56-9        56    9.000       2508.    
     MULTIPLE LAYERS AND PROPORTIONS :    1, 0.32       2, 0.68
  6659 673-61-47       61    47.00       2504.    
     MULTIPLE LAYERS AND PROPORTIONS :    1, 0.32       2, 0.68
  6660 673-65-357      65    357.0       2527.    
     MULTIPLE LAYERS AND PROPORTIONS :    1, 0.32       2, 0.68
  6661 673-70-334      70    334.0       2545.    
     MULTIPLE LAYERS AND PROPORTIONS :    1, 0.32       2, 0.68
  6662 673-71-362      71    362.0       2550.    
     MULTIPLE LAYERS AND PROPORTIONS :    1, 0.32       2, 0.68
  6663 653-32-41       32    41.00       2506.    
     MULTIPLE LAYERS AND PROPORTIONS :    1, 0.42       2, 0.58
  6664 653-39-32       39    32.00       2513.    
     MULTIPLE LAYERS AND PROPORTIONS :    1, 0.42       2, 0.58
  6665 653-43-4        43    4.000       2493.    
     MULTIPLE LAYERS AND PROPORTIONS :    1, 0.42       2, 0.58
  6666 653-48-362      48    362.0       2495.    
     MULTIPLE LAYERS AND PROPORTIONS :    1, 0.42       2, 0.58
  6667 653-56-9        56    9.000       2514.    
     MULTIPLE LAYERS AND PROPORTIONS :    1, 0.42       2, 0.58
  6668 653-61-47       61    47.00       2500.    
     MULTIPLE LAYERS AND PROPORTIONS :    1, 0.42       2, 0.58
  6669 653-65-357      65    357.0       2517.    
     MULTIPLE LAYERS AND PROPORTIONS :    1, 0.42       2, 0.58
  6670 653-71-362      71    362.0       2552.    
     MULTIPLE LAYERS AND PROPORTIONS :    1, 0.42       2, 0.58
  6671 642-36-352      36    352.0       2607.    
  6672 642-43-4        43    4.000       2588.    
  6673 642-48-362      48    362.0       2581.    
  6674 642-56-9        56    9.000       2580.    
  6675 642-61-47       61    47.00       2572.    
  6676 642-65-357      65    357.0       2568.    
  6677 642-71-362      71    362.0       2571.    
  6678 637-26-295      26    295.0       2608.    
     MULTIPLE LAYERS AND PROPORTIONS :    2, 0.23       3, 0.77
  6679 637-31-349      31    349.0       2611.    
     MULTIPLE LAYERS AND PROPORTIONS :    2, 0.23       3, 0.77
  6680 637-36-352      36    352.0       2607.    
     MULTIPLE LAYERS AND PROPORTIONS :    2, 0.23       3, 0.77
  6681 637-43-4        43    4.000       2578.    
     MULTIPLE LAYERS AND PROPORTIONS :    2, 0.23       3, 0.77
  6682 637-48-362      48    362.0       2568.    
     MULTIPLE LAYERS AND PROPORTIONS :    2, 0.23       3, 0.77
  6683 637-56-9        56    9.000       2569.    
     MULTIPLE LAYERS AND PROPORTIONS :    2, 0.23       3, 0.77
  6684 637-61-47       61    47.00       2559.    
     MULTIPLE LAYERS AND PROPORTIONS :    2, 0.23       3, 0.77
  6685 637-65-357      65    357.0       2553.    
     MULTIPLE LAYERS AND PROPORTIONS :    2, 0.23       3, 0.77
  6686 637-71-362      71    362.0       2566.    
     MULTIPLE LAYERS AND PROPORTIONS :    2, 0.23       3, 0.77
  6687 624-7-99         7    99.00       2610.    
  6688 624-12-103      12    103.0       2609.    
  6689 624-17-52       17    52.00       2607.    
  6690 624-22-39       22    39.00       2605.    
  6691 624-27-5        27    5.000       2602.    
  6692 624-32-1        32    1.000       2598.    
  6693 595-37-32       37    32.00       2599.    
     MULTIPLE LAYERS AND PROPORTIONS :    1, 0.25       2, 0.25       3, 0.50
  6694 595-43-4        43    4.000       2582.    
     MULTIPLE LAYERS AND PROPORTIONS :    1, 0.25       2, 0.25       3, 0.50
  6695 595-48-362      48    362.0       2558.    
     MULTIPLE LAYERS AND PROPORTIONS :    1, 0.25       2, 0.25       3, 0.50
  6696 595-56-9        56    9.000       2570.    
     MULTIPLE LAYERS AND PROPORTIONS :    1, 0.25       2, 0.25       3, 0.50
  6697 595-61-47       61    47.00       2560.    
     MULTIPLE LAYERS AND PROPORTIONS :    2, 0.50       3, 0.50
  6698 595-65-357      65    357.0       2558.    
     MULTIPLE LAYERS AND PROPORTIONS :    1, 0.25       2, 0.25       3, 0.50
  6699 595-71-362      71    362.0       2564.    
     MULTIPLE LAYERS AND PROPORTIONS :    1, 0.25       2, 0.25       3, 0.50
  6700 604-31-323      31    323.0       2609.    
     MULTIPLE LAYERS AND PROPORTIONS :    2, 0.71       3, 0.29
  6701 604-37-32       37    32.00       2621.    
     MULTIPLE LAYERS AND PROPORTIONS :    2, 0.71       3, 0.29
  6702 604-43-4        43    4.000       2602.    
     MULTIPLE LAYERS AND PROPORTIONS :    2, 0.71       3, 0.29
  6703 604-48-362      48    362.0       2594.    
     MULTIPLE LAYERS AND PROPORTIONS :    2, 0.71       3, 0.29
  6704 604-56-9        56    9.000       2588.    
     MULTIPLE LAYERS AND PROPORTIONS :    2, 0.71       3, 0.29
  6705 604-61-47       61    47.00       2574.    
     MULTIPLE LAYERS AND PROPORTIONS :    2, 0.71       3, 0.29
  6706 604-65-357      65    357.0       2571.    
     MULTIPLE LAYERS AND PROPORTIONS :    2, 0.71       3, 0.29
  6707 604-71-362      71    362.0       2569.    
     MULTIPLE LAYERS AND PROPORTIONS :    2, 0.71       3, 0.29
  6708 596-36-352      36    352.0       2575.    
     MULTIPLE LAYERS AND PROPORTIONS :    2, 0.35       3, 0.65
  6709 596-43-4        43    4.000       2524.    
     MULTIPLE LAYERS AND PROPORTIONS :    2, 0.35       3, 0.65
  6710 596-48-362      48    362.0       2513.    
     MULTIPLE LAYERS AND PROPORTIONS :    2, 0.35       3, 0.65
  6711 596-56-9        56    9.000       2539.    
     MULTIPLE LAYERS AND PROPORTIONS :    2, 0.35       3, 0.65
  6712 596-61-47       61    47.00       2514.    
     MULTIPLE LAYERS AND PROPORTIONS :    2, 0.35       3, 0.65
  6713 596-65-357      65    357.0       2515.    
     MULTIPLE LAYERS AND PROPORTIONS :    2, 0.35       3, 0.65
  6714 596-71-362      71    362.0       2556.    
     MULTIPLE LAYERS AND PROPORTIONS :    2, 0.35       3, 0.65
  6715 609-43-4        43    4.000       2521.    
     MULTIPLE LAYERS AND PROPORTIONS :    1, 0.39       2, 0.61
  6716 609-56-9        56    9.000       2525.    
     MULTIPLE LAYERS AND PROPORTIONS :    1, 0.39       2, 0.61
  6717 609-61-47       61    47.00       2518.    
     MULTIPLE LAYERS AND PROPORTIONS :    1, 0.39       2, 0.61
  6718 609-65-357      65    357.0       2540.    
     MULTIPLE LAYERS AND PROPORTIONS :    1, 0.39       2, 0.61
  6719 609-71-362      71    362.0       2563.    
     MULTIPLE LAYERS AND PROPORTIONS :    1, 0.39       2, 0.61
  6720 639-27-10       27    10.00       2551.    
  6721 639-66-49       66    49.00       2549.    
  6722 626-27-10       27    10.00       2555.    
  6723 626-42-349      42    349.0       2510.    
  6724 626-48-343      48    343.0       2512.    
  6725 626-56-19       56    19.00       2525.    
  6726 626-61-60       61    60.00       2519.    
  6727 626-66-49       66    49.00       2548.    
  6728 635-17-52       17    52.00       2587.    
  6729 635-22-38       22    38.00       2568.    
  6730 635-26-280      26    280.0       2551.    
  6731 635-42-349      42    349.0       2495.    
  6732 635-48-343      48    343.0       2520.    
  6733 635-56-19       56    19.00       2524.    
  6734 635-61-60       61    60.00       2522.    
  6735 635-66-49       66    49.00       2547.    
  6736 629-11-307      11    307.0       2590.    
  6737 629-16-364      16    364.0       2586.    
  6738 629-21-332      21    332.0       2577.    
  6739 629-26-287      26    287.0       2575.    
  6740 629-31-335      31    335.0       2555.    
  6741 629-37-32       37    32.00       2545.    
  6742 629-48-343      48    343.0       2540.    
  6743 629-56-23       56    23.00       2541.    
  6744 629-61-60       61    60.00       2574.    
  6745 629-66-46       66    46.00       2595.    
  6746 628-11-307      11    307.0       2587.    
  6747 628-17-52       17    52.00       2582.    
  6748 628-36-356      36    356.0       2511.    
  6749 628-42-349      42    349.0       2508.    
  6750 628-48-343      48    343.0       2521.    
  6751 628-56-19       56    19.00       2531.    
  6752 628-61-60       61    60.00       2532.    
  6753 628-66-46       66    46.00       2549.    
  6754 630-12-310      12    310.0       2581.    
     MULTIPLE LAYERS AND PROPORTIONS :    1, 0.66       2, 0.34
  6755 630-17-3        17    3.000       2586.    
     MULTIPLE LAYERS AND PROPORTIONS :    1, 0.66       2, 0.34
  6756 630-22-38       22    38.00       2558.    
     MULTIPLE LAYERS AND PROPORTIONS :    1, 0.66       2, 0.34
  6757 630-27-11       27    11.00       2563.    
     MULTIPLE LAYERS AND PROPORTIONS :    1, 0.66       2, 0.34
  6758 630-36-357      36    357.0       2528.    
     MULTIPLE LAYERS AND PROPORTIONS :    1, 0.66       2, 0.34
  6759 630-42-350      42    350.0       2531.    
     MULTIPLE LAYERS AND PROPORTIONS :    1, 0.66       2, 0.34
  6760 630-48-343      48    343.0       2536.    
     MULTIPLE LAYERS AND PROPORTIONS :    1, 0.66       2, 0.34
  6761 630-56-19       56    19.00       2538.    
     MULTIPLE LAYERS AND PROPORTIONS :    1, 0.66       2, 0.34
  6762 630-61-60       61    60.00       2582.    
     MULTIPLE LAYERS AND PROPORTIONS :    1, 0.66       2, 0.34
  6763 630-66-46       66    46.00       2596.    
     MULTIPLE LAYERS AND PROPORTIONS :    1, 0.66       2, 0.34
  6764 631-17-3        17    3.000       2582.    
     MULTIPLE LAYERS AND PROPORTIONS :    1, 0.42       2, 0.58
  6765 631-22-32       22    32.00       2552.    
     MULTIPLE LAYERS AND PROPORTIONS :    1, 0.42       2, 0.58
  6766 631-26-289      26    289.0       2555.    
     MULTIPLE LAYERS AND PROPORTIONS :    1, 0.42       2, 0.58
  6767 631-31-335      31    335.0       2534.    
     MULTIPLE LAYERS AND PROPORTIONS :    1, 0.42       2, 0.58
  6768 631-33-335      33    335.0       2527.    
     MULTIPLE LAYERS AND PROPORTIONS :    1, 0.42       2, 0.58
  6769 631-42-350      42    350.0       2508.    
  6770 631-48-343      48    343.0       2519.    
  6771 631-56-19       56    19.00       2524.    
  6772 631-61-55       61    55.00       2581.    
  6773 631-66-46       66    46.00       2598.    
  6774 593-27-11       27    11.00       2564.    
  6775 593-61-55       61    55.00       2584.    
  6776 593-66-46       66    46.00       2601.    
  6777 592-1-365        1    365.0       2597.    
 Observation within a steady-state time step has been moved to the end of the time step.
  6778 587-7-101        7    101.0       2597.    
     MULTIPLE LAYERS AND PROPORTIONS :    1, 0.40       2, 0.36       3, 0.24
  6779 587-11-307      11    307.0       2592.    
     MULTIPLE LAYERS AND PROPORTIONS :    1, 0.40       2, 0.36       3, 0.24
  6780 587-17-53       17    53.00       2588.    
     MULTIPLE LAYERS AND PROPORTIONS :    1, 0.40       2, 0.36       3, 0.24
  6781 587-26-287      26    287.0       2560.    
     MULTIPLE LAYERS AND PROPORTIONS :    1, 0.40       2, 0.36       3, 0.24
  6782 587-31-335      31    335.0       2541.    
     MULTIPLE LAYERS AND PROPORTIONS :    1, 0.40       2, 0.36       3, 0.24
  6783 587-38-60       38    60.00       2529.    
     MULTIPLE LAYERS AND PROPORTIONS :    2, 0.76       3, 0.24
  6784 587-42-350      42    350.0       2514.    
     MULTIPLE LAYERS AND PROPORTIONS :    2, 0.76       3, 0.24
  6785 587-48-343      48    343.0       2528.    
     MULTIPLE LAYERS AND PROPORTIONS :    2, 0.76       3, 0.24
  6786 587-56-19       56    19.00       2533.    
     MULTIPLE LAYERS AND PROPORTIONS :    2, 0.76       3, 0.24
  6787 587-61-55       61    55.00       2583.    
  6788 587-66-46       66    46.00       2601.    
  6789 591-11-333      11    333.0       2581.    
  6790 591-17-53       17    53.00       2583.    
  6791 591-42-350      42    350.0       2513.    
  6792 597-6-79         6    79.00       2592.    
  6793 597-11-307      11    307.0       2591.    
  6794 597-17-53       17    53.00       2582.    
  6795 597-26-287      26    287.0       2562.    
  6796 597-42-350      42    350.0       2512.    
  6797 597-48-343      48    343.0       2526.    
  6798 597-56-19       56    19.00       2531.    
  6799 597-61-60       61    60.00       2565.    
  6800 597-66-46       66    46.00       2587.    
  6801 607-42-349      42    349.0       2527.    
  6802 607-48-343      48    343.0       2540.    
  6803 607-56-23       56    23.00       2545.    
  6804 607-61-60       61    60.00       2554.    
  6805 607-66-46       66    46.00       2584.    
  6806 568-48-343      48    343.0       2551.    
     MULTIPLE LAYERS AND PROPORTIONS :    1, 0.68       2, 0.32
  6807 568-56-10       56    10.00       2554.    
     MULTIPLE LAYERS AND PROPORTIONS :    1, 0.68       2, 0.32
  6808 568-61-61       61    61.00       2538.    
     MULTIPLE LAYERS AND PROPORTIONS :    1, 0.68       2, 0.32
  6809 560-1-358        1    358.0       2617.    
 Observation within a steady-state time step has been moved to the end of the time step.
     MULTIPLE LAYERS AND PROPORTIONS :    1, 0.77       2, 0.23
  6810 560-6-340        6    340.0       2617.    
     MULTIPLE LAYERS AND PROPORTIONS :    1, 0.77       2, 0.23
  6811 560-10-349      10    349.0       2599.    
     MULTIPLE LAYERS AND PROPORTIONS :    1, 0.77       2, 0.23
  6812 545-38-6        38    6.000       2479.    
     MULTIPLE LAYERS AND PROPORTIONS :    1, 0.18       2, 0.12       3, 0.70
  6813 545-42-356      42    356.0       2524.    
     MULTIPLE LAYERS AND PROPORTIONS :    1, 0.18       2, 0.12       3, 0.70
  6814 538-1-365        1    365.0       2620.    
 Observation within a steady-state time step has been moved to the end of the time step.
     MULTIPLE LAYERS AND PROPORTIONS :    1, 0.97       2, 0.03
  6815 517-7-49         7    49.00       2615.    
  6816 574-56-24       56    24.00       2534.    
  6817 574-61-61       61    61.00       2529.    
  6818 574-66-33       66    33.00       2544.    
  6819 580-1-365        1    365.0       2614.    
 Observation within a steady-state time step has been moved to the end of the time step.
  6820 555-8-357        8    357.0       2608.    
  6821 555-12-67       12    67.00       2604.    
  6822 555-27-10       27    10.00       2570.    
  6823 555-31-335      31    335.0       2561.    
  6824 555-38-60       38    60.00       2550.    
  6825 555-56-24       56    24.00       2557.    
  6826 555-61-60       61    60.00       2550.    
  6827 555-66-33       66    33.00       2562.    
  6828 547-1-365        1    365.0       2616.    
 Observation within a steady-state time step has been moved to the end of the time step.
  6829 546-27-10       27    10.00       2574.    
  6830 539-56-10       56    10.00       2551.    
  6831 539-61-60       61    60.00       2539.    
  6832 539-66-33       66    33.00       2553.    
  6833 573-48-362      48    362.0       2549.    
  6834 573-56-9        56    9.000       2550.    
  6835 573-71-362      71    362.0       2581.    
  6836 808-48-335      48    335.0       2558.    
  6837 808-66-33       66    33.00       2546.    
  6838 808-71-61       71    61.00       2531.    
  6839 807-26-349      26    349.0       2539.    
  6840 807-43-4        43    4.000       2524.    
  6841 807-48-341      48    341.0       2491.    
  6842 805-56-9        56    9.000       2512.    
  6843 807-56-9        56    9.000       2486.    
  6844 807-61-47       61    47.00       2499.    
  6845 805-65-357      65    357.0       2511.    
  6846 807-65-357      65    357.0       2507.    
  6847 805-71-362      71    362.0       2516.    
  6848 807-71-362      71    362.0       2516.    
  6849 810-43-4        43    4.000       2471.    
  6850 810-48-362      48    362.0       2465.    
  6851 810-61-47       61    47.00       2472.    
  6852 810-65-357      65    357.0       2509.    
  6853 810-71-362      71    362.0       2533.    
  6854 767-48-335      48    335.0       2562.    
  6855 761-31-335      31    335.0       2494.    
  6856 761-37-320      37    320.0       2488.    
  6857 761-42-355      42    355.0       2468.    
  6858 761-48-342      48    342.0       2479.    
  6859 761-56-18       56    18.00       2481.    
  6860 761-61-54       61    54.00       2480.    
  6861 761-66-33       66    33.00       2511.    
  6862 763-42-355      42    355.0       2484.    
  6863 763-48-342      48    342.0       2488.    
  6864 763-56-18       56    18.00       2488.    
  6865 763-61-56       61    56.00       2488.    
  6866 763-66-33       66    33.00       2514.    
  6867 802-56-9        56    9.000       2469.    
  6868 802-61-47       61    47.00       2460.    
  6869 802-65-357      65    357.0       2496.    
  6870 802-71-362      71    362.0       2515.    
  6871 781-61-54       61    54.00       2482.    
  6872 781-66-33       66    33.00       2514.    
  6873 775-56-27       56    27.00       2485.    
  6874 775-61-54       61    54.00       2484.    
  6875 775-66-33       66    33.00       2515.    
  6876 786-66-33       66    33.00       2504.    
  6877 782-26-336      26    336.0       2502.    
  6878 782-31-335      31    335.0       2489.    
  6879 782-43-4        43    4.000       2455.    
  6880 782-48-362      48    362.0       2463.    
  6881 782-56-9        56    9.000       2471.    
  6882 782-61-47       61    47.00       2456.    
  6883 782-65-357      65    357.0       2505.    
  6884 782-71-362      71    362.0       2523.    
  6885 755-27-12       27    12.00       2512.    
  6886 755-31-348      31    348.0       2492.    
  6887 755-37-26       37    26.00       2467.    
  6888 755-42-357      42    357.0       2472.    
  6889 755-48-342      48    342.0       2464.    
  6890 755-56-18       56    18.00       2477.    
  6891 755-60-320      60    320.0       2475.    
  6892 755-65-298      65    298.0       2509.    
  6893 755-71-365      71    365.0       2524.    
  6894 776-42-354      42    354.0       2621.    
     MULTIPLE LAYERS AND PROPORTIONS :    2, 0.57       3, 0.43
  6895 776-48-335      48    335.0       2625.    
     MULTIPLE LAYERS AND PROPORTIONS :    2, 0.57       3, 0.43
  6896 776-56-17       56    17.00       2621.    
     MULTIPLE LAYERS AND PROPORTIONS :    2, 0.57       3, 0.43
  6897 776-61-53       61    53.00       2616.    
     MULTIPLE LAYERS AND PROPORTIONS :    2, 0.57       3, 0.43
  6898 785-32-62       32    62.00       2582.    
  6899 785-37-32       37    32.00       2565.    
  6900 785-48-334      48    334.0       2578.    
  6901 785-56-19       56    19.00       2574.    
  6902 785-66-33       66    33.00       2559.    
  6903 784-32-62       32    62.00       2579.    
  6904 784-66-33       66    33.00       2552.    
  6905 777-32-6        32    6.000       2568.    
  6906 777-37-32       37    32.00       2563.    
  6907 777-42-355      42    355.0       2560.    
  6908 777-48-334      48    334.0       2557.    
  6909 777-56-18       56    18.00       2552.    
  6910 778-42-355      42    355.0       2583.    
  6911 778-48-334      48    334.0       2582.    
  6912 778-56-18       56    18.00       2572.    
  6913 778-60-321      60    321.0       2563.    
  6914 778-65-299      65    299.0       2553.    
  6915 778-71-365      71    365.0       2542.    
  6916 779-42-355      42    355.0       2598.    
  6917 779-48-334      48    334.0       2600.    
  6918 779-56-18       56    18.00       2594.    
  6919 779-60-321      60    321.0       2587.    
  6920 779-65-299      65    299.0       2574.    
  6921 779-71-365      71    365.0       2564.    
  6922 801-36-310      36    310.0       2530.    
  6923 797-65-356      65    356.0       2527.    
  6924 797-71-362      71    362.0       2516.    
  6925 768-42-355      42    355.0       2572.    
  6926 768-48-335      48    335.0       2565.    
  6927 732-36-316      36    316.0       2606.    
     MULTIPLE LAYERS AND PROPORTIONS :    1, 0.29       2, 0.36       3, 0.35
  6928 765-32-6        32    6.000       2602.    
  6929 765-42-355      42    355.0       2590.    
  6930 765-48-348      48    348.0       2588.    
  6931 765-56-11       56    11.00       2585.    
  6932 765-61-48       61    48.00       2578.    
  6933 765-65-356      65    356.0       2569.    
  6934 765-71-362      71    362.0       2559.    
  6935 718-37-32       37    32.00       2606.    
     MULTIPLE LAYERS AND PROPORTIONS :    2, 0.38       3, 0.62
  6936 718-48-334      48    334.0       2620.    
     MULTIPLE LAYERS AND PROPORTIONS :    2, 0.38       3, 0.62
  6937 718-56-16       56    16.00       2618.    
     MULTIPLE LAYERS AND PROPORTIONS :    2, 0.38       3, 0.62
  6938 718-61-53       61    53.00       2611.    
     MULTIPLE LAYERS AND PROPORTIONS :    2, 0.38       3, 0.62
  6939 718-66-32       66    32.00       2605.    
     MULTIPLE LAYERS AND PROPORTIONS :    2, 0.38       3, 0.62
  6940 718-71-60       71    60.00       2597.    
     MULTIPLE LAYERS AND PROPORTIONS :    2, 0.38       3, 0.62
  6941 728-7-85         7    85.00       2589.    
  6942 728-12-124      12    124.0       2591.    
  6943 728-17-78       17    78.00       2590.    
  6944 728-27-5        27    5.000       2585.    
  6945 728-32-6        32    6.000       2583.    
  6946 728-37-32       37    32.00       2577.    
  6947 728-42-355      42    355.0       2577.    
  6948 728-48-334      48    334.0       2571.    
  6949 728-56-18       56    18.00       2565.    
  6950 681-7-358        7    358.0       2622.    
  6951 681-12-103      12    103.0       2627.    
  6952 681-17-78       17    78.00       2625.    
  6953 681-32-61       32    61.00       2617.    
  6954 681-37-32       37    32.00       2608.    
  6955 662-71-365      71    365.0       2600.    
  6956 616-42-355      42    355.0       2610.    
  6957 616-56-16       56    16.00       2613.    
  6958 825-71-62       71    62.00       2683.    
  6959 608-32-62       32    62.00       2625.    
     MULTIPLE LAYERS AND PROPORTIONS :    2, 0.74       3, 0.26
  6960 608-48-348      48    348.0       2612.    
     MULTIPLE LAYERS AND PROPORTIONS :    2, 0.74       3, 0.26
  6961 608-56-11       56    11.00       2610.    
     MULTIPLE LAYERS AND PROPORTIONS :    2, 0.74       3, 0.26
  6962 608-61-41       61    41.00       2604.    
     MULTIPLE LAYERS AND PROPORTIONS :    2, 0.74       3, 0.26
  6963 608-65-355      65    355.0       2598.    
     MULTIPLE LAYERS AND PROPORTIONS :    2, 0.74       3, 0.26
  6964 608-71-365      71    365.0       2590.    
     MULTIPLE LAYERS AND PROPORTIONS :    2, 0.74       3, 0.26
  6965 559-8-73         8    73.00       2650.    
  6966 559-12-60       12    60.00       2648.    
  6967 559-17-78       17    78.00       2645.    
  6968 559-32-62       32    62.00       2635.    
  6969 559-36-335      36    335.0       2633.    
  6970 806-71-62       71    62.00       2679.    
  6971 771-43-68       43    68.00       2683.    
  6972 764-43-68       43    68.00       2679.    
  6973 764-48-342      48    342.0       2689.    
  6974 764-56-17       56    17.00       2685.    
  6975 764-61-60       61    60.00       2681.    
  6976 764-66-19       66    19.00       2671.    
  6977 764-71-63       71    63.00       2637.    
  6978 731-32-61       32    61.00       2676.    
  6979 731-42-355      42    355.0       2676.    
  6980 730-48-342      48    342.0       2689.    
  6981 730-56-17       56    17.00       2682.    
  6982 730-60-320      60    320.0       2678.    
  6983 730-71-365      71    365.0       2653.    
  6984 725-48-343      48    343.0       2682.    
  6985 725-56-16       56    16.00       2675.    
  6986 725-61-59       61    59.00       2671.    
  6987 725-66-19       66    19.00       2660.    
  6988 725-71-63       71    63.00       2649.    
  6989 683-7-360        7    360.0       2686.    
  6990 683-12-102      12    102.0       2682.    
  6991 683-17-78       17    78.00       2681.    
  6992 683-32-61       32    61.00       2678.    
  6993 683-37-32       37    32.00       2678.    
  6994 683-48-342      48    342.0       2690.    
  6995 528-56-10       56    10.00       2551.    
     MULTIPLE LAYERS AND PROPORTIONS :    1, 0.40       2, 0.27       3, 0.33
  6996 528-61-56       61    56.00       2563.    
     MULTIPLE LAYERS AND PROPORTIONS :    1, 0.40       2, 0.27       3, 0.33
  6997 528-66-34       66    34.00       2585.    
     MULTIPLE LAYERS AND PROPORTIONS :    1, 0.40       2, 0.27       3, 0.33
  6998 532-56-10       56    10.00       2465.    
  6999 532-61-56       61    56.00       2464.    
  7000 523-42-363      42    363.0       2441.    
  7001 523-48-343      48    343.0       2487.    
  7002 523-56-10       56    10.00       2443.    
  7003 523-61-56       61    56.00       2416.    
  7004 506-31-282      31    282.0       2501.    
  7005 506-56-10       56    10.00       2455.    
  7006 506-60-321      60    321.0       2429.    
  7007 516-56-10       56    10.00       2456.    
     MULTIPLE LAYERS AND PROPORTIONS :    2, 0.06       3, 0.94
  7008 516-61-56       61    56.00       2430.    
     MULTIPLE LAYERS AND PROPORTIONS :    2, 0.06       3, 0.94
  7009 507-17-55       17    55.00       2618.    
     MULTIPLE LAYERS AND PROPORTIONS :    1, 0.22       2, 0.56       3, 0.22
  7010 507-22-40       22    40.00       2610.    
     MULTIPLE LAYERS AND PROPORTIONS :    1, 0.22       2, 0.56       3, 0.22
  7011 507-26-299      26    299.0       2574.    
     MULTIPLE LAYERS AND PROPORTIONS :    1, 0.22       2, 0.56       3, 0.22
  7012 507-31-335      31    335.0       2512.    
     MULTIPLE LAYERS AND PROPORTIONS :    2, 0.78       3, 0.22
  7013 507-48-343      48    343.0       2489.    
     MULTIPLE LAYERS AND PROPORTIONS :    2, 0.78       3, 0.22
  7014 507-56-10       56    10.00       2454.    
     MULTIPLE LAYERS AND PROPORTIONS :    2, 0.78       3, 0.22
  7015 496-17-55       17    55.00       2616.    
  7016 496-22-40       22    40.00       2601.    
  7017 496-31-335      31    335.0       2517.    
  7018 492-56-10       56    10.00       2460.    
  7019 492-61-60       61    60.00       2433.    
  7020 492-66-31       66    31.00       2444.    
  7021 466-56-10       56    10.00       2485.    
  7022 466-61-60       61    60.00       2462.    
  7023 466-66-34       66    34.00       2469.    
  7024 462-56-10       56    10.00       2487.    
  7025 462-61-60       61    60.00       2467.    
  7026 462-66-34       66    34.00       2471.    
  7027 476-56-10       56    10.00       2543.    
  7028 476-61-60       61    60.00       2520.    
  7029 465-56-10       56    10.00       2488.    
     MULTIPLE LAYERS AND PROPORTIONS :    2, 0.14       3, 0.86
  7030 465-61-60       61    60.00       2465.    
     MULTIPLE LAYERS AND PROPORTIONS :    2, 0.14       3, 0.86
  7031 465-66-34       66    34.00       2471.    
     MULTIPLE LAYERS AND PROPORTIONS :    2, 0.14       3, 0.86
  7032 460-1-365        1    365.0       2621.    
 Observation within a steady-state time step has been moved to the end of the time step.
  7033 458-38-7        38    7.000       2512.    
  7034 458-48-336      48    336.0       2521.    
  7035 458-56-10       56    10.00       2500.    
  7036 458-61-60       61    60.00       2475.    
  7037 458-66-54       66    54.00       2482.    
  7038 458-71-34       71    34.00       2477.    
  7039 440-38-6        38    6.000       2577.    
     MULTIPLE LAYERS AND PROPORTIONS :    2, 0.80       3, 0.20
  7040 440-42-356      42    356.0       2567.    
     MULTIPLE LAYERS AND PROPORTIONS :    2, 0.80       3, 0.20
  7041 440-48-337      48    337.0       2577.    
     MULTIPLE LAYERS AND PROPORTIONS :    2, 0.80       3, 0.20
  7042 443-1-365        1    365.0       2655.    
 Observation within a steady-state time step has been moved to the end of the time step.
  7043 439-1-358        1    358.0       2668.    
 Observation within a steady-state time step has been moved to the end of the time step.
  7044 439-4-350        4    350.0       2664.    
  7045 449-10-89       10    89.00       2694.    
  7046 418-48-342      48    342.0       2555.    
  7047 418-56-18       56    18.00       2536.    
  7048 415-48-342      48    342.0       2559.    
  7049 415-56-18       56    18.00       2540.    
  7050 421-34-313      34    313.0       2575.    
  7051 421-48-343      48    343.0       2651.    
  7052 421-56-12       56    12.00       2520.    
  7053 421-61-60       61    60.00       2505.    
  7054 417-34-60       34    60.00       2622.    
  7055 412-6-290        6    290.0       2682.    
     MULTIPLE LAYERS AND PROPORTIONS :    1, 0.46       2, 0.54
  7056 412-10-297      10    297.0       2676.    
     MULTIPLE LAYERS AND PROPORTIONS :    1, 0.46       2, 0.54
  7057 412-17-4        17    4.000       2653.    
     MULTIPLE LAYERS AND PROPORTIONS :    1, 0.46       2, 0.54
  7058 412-27-12       27    12.00       2630.    
     MULTIPLE LAYERS AND PROPORTIONS :    1, 0.46       2, 0.54
  7059 412-38-6        38    6.000       2587.    
  7060 412-42-356      42    356.0       2584.    
  7061 412-48-336      48    336.0       2593.    
  7062 411-48-336      48    336.0       2587.    
     MULTIPLE LAYERS AND PROPORTIONS :    2, 0.15       3, 0.85
  7063 411-56-11       56    11.00       2548.    
     MULTIPLE LAYERS AND PROPORTIONS :    2, 0.15       3, 0.85
  7064 411-61-60       61    60.00       2529.    
     MULTIPLE LAYERS AND PROPORTIONS :    2, 0.15       3, 0.85
  7065 411-66-54       66    54.00       2524.    
     MULTIPLE LAYERS AND PROPORTIONS :    2, 0.15       3, 0.85
  7066 411-71-33       71    33.00       2510.    
     MULTIPLE LAYERS AND PROPORTIONS :    2, 0.15       3, 0.85
  7067 405-38-6        38    6.000       2576.    
     MULTIPLE LAYERS AND PROPORTIONS :    2, 0.06       3, 0.94
  7068 405-42-355      42    355.0       2545.    
     MULTIPLE LAYERS AND PROPORTIONS :    2, 0.06       3, 0.94
  7069 405-48-334      48    334.0       2569.    
     MULTIPLE LAYERS AND PROPORTIONS :    2, 0.06       3, 0.94
  7070 405-56-11       56    11.00       2572.    
     MULTIPLE LAYERS AND PROPORTIONS :    2, 0.06       3, 0.94
  7071 405-61-60       61    60.00       2539.    
     MULTIPLE LAYERS AND PROPORTIONS :    2, 0.06       3, 0.94
  7072 405-66-54       66    54.00       2530.    
     MULTIPLE LAYERS AND PROPORTIONS :    2, 0.06       3, 0.94
  7073 405-71-33       71    33.00       2515.    
  7074 396-17-4        17    4.000       2673.    
     MULTIPLE LAYERS AND PROPORTIONS :    1, 0.35       2, 0.44       3, 0.21
  7075 396-27-12       27    12.00       2636.    
     MULTIPLE LAYERS AND PROPORTIONS :    1, 0.35       2, 0.44       3, 0.21
  7076 396-38-6        38    6.000       2595.    
     MULTIPLE LAYERS AND PROPORTIONS :    2, 0.79       3, 0.21
  7077 396-42-355      42    355.0       2564.    
     MULTIPLE LAYERS AND PROPORTIONS :    2, 0.79       3, 0.21
  7078 396-48-336      48    336.0       2581.    
     MULTIPLE LAYERS AND PROPORTIONS :    2, 0.79       3, 0.21
  7079 393-1-358        1    358.0       2703.    
 Observation within a steady-state time step has been moved to the end of the time step.
  7080 398-38-6        38    6.000       2565.    
     MULTIPLE LAYERS AND PROPORTIONS :    2, 0.08       3, 0.92
  7081 398-42-356      42    356.0       2540.    
     MULTIPLE LAYERS AND PROPORTIONS :    2, 0.08       3, 0.92
  7082 387-42-356      42    356.0       2544.    
  7083 387-48-336      48    336.0       2564.    
  7084 387-56-11       56    11.00       2551.    
  7085 387-61-60       61    60.00       2535.    
  7086 387-66-54       66    54.00       2531.    
  7087 387-71-33       71    33.00       2515.    
  7088 386-17-4        17    4.000       2684.    
  7089 386-27-12       27    12.00       2644.    
  7090 386-48-336      48    336.0       2595.    
  7091 381-38-6        38    6.000       2578.    
     MULTIPLE LAYERS AND PROPORTIONS :    1, 0.25       2, 0.75
  7092 381-42-356      42    356.0       2574.    
     MULTIPLE LAYERS AND PROPORTIONS :    1, 0.25       2, 0.75
  7093 381-48-336      48    336.0       2584.    
     MULTIPLE LAYERS AND PROPORTIONS :    1, 0.25       2, 0.75
  7094 361-26-295      26    295.0       2654.    
  7095 361-43-14       43    14.00       2526.    
  7096 361-56-12       56    12.00       2552.    
  7097 361-61-60       61    60.00       2534.    
  7098 361-66-31       66    31.00       2524.    
  7099 365-1-365        1    365.0       2700.    
 Observation within a steady-state time step has been moved to the end of the time step.
  7100 364-42-356      42    356.0       2553.    
  7101 363-1-365        1    365.0       2702.    
 Observation within a steady-state time step has been moved to the end of the time step.
  7102 391-56-12       56    12.00       2551.    
     MULTIPLE LAYERS AND PROPORTIONS :    2, 0.22       3, 0.78
  7103 391-61-60       61    60.00       2535.    
     MULTIPLE LAYERS AND PROPORTIONS :    2, 0.22       3, 0.78
  7104 372-43-14       43    14.00       2535.    
  7105 372-56-12       56    12.00       2543.    
  7106 372-61-60       61    60.00       2535.    
  7107 375-56-19       56    19.00       2559.    
  7108 358-56-19       56    19.00       2556.    
  7109 350-56-19       56    19.00       2568.    
  7110 343-56-19       56    19.00       2566.    
  7111 345-43-6        43    6.000       2552.    
  7112 356-56-12       56    12.00       2558.    
  7113 356-61-60       61    60.00       2544.    
  7114 352-17-4        17    4.000       2694.    
  7115 352-22-51       22    51.00       2686.    
  7116 352-27-14       27    14.00       2662.    
  7117 342-37-342      37    342.0       2587.    
  7118 342-43-14       43    14.00       2567.    
  7119 349-27-13       27    13.00       2659.    
  7120 348-56-11       56    11.00       2621.    
     MULTIPLE LAYERS AND PROPORTIONS :    1, 0.59       2, 0.41
  7121 348-61-54       61    54.00       2610.    
     MULTIPLE LAYERS AND PROPORTIONS :    1, 0.59       2, 0.41
  7122 348-66-35       66    35.00       2604.    
     MULTIPLE LAYERS AND PROPORTIONS :    1, 0.59       2, 0.41
  7123 351-3-56         3    56.00       2741.    
     MULTIPLE LAYERS AND PROPORTIONS :    1, 0.57       2, 0.43
  7124 351-22-46       22    46.00       2687.    
     MULTIPLE LAYERS AND PROPORTIONS :    1, 0.57       2, 0.43
  7125 351-27-62       27    62.00       2672.    
     MULTIPLE LAYERS AND PROPORTIONS :    1, 0.57       2, 0.43
  7126 351-37-342      37    342.0       2622.    
  7127 351-43-14       43    14.00       2621.    
  7128 351-48-337      48    337.0       2632.    
  7129 351-56-11       56    11.00       2632.    
  7130 351-61-54       61    54.00       2623.    
  7131 351-66-35       66    35.00       2620.    
  7132 346-17-4        17    4.000       2697.    
  7133 346-27-14       27    14.00       2658.    
  7134 347-11-304      11    304.0       2719.    
     MULTIPLE LAYERS AND PROPORTIONS :    1, 0.49       2, 0.51
  7135 347-17-59       17    59.00       2705.    
     MULTIPLE LAYERS AND PROPORTIONS :    1, 0.49       2, 0.51
  7136 347-22-46       22    46.00       2680.    
     MULTIPLE LAYERS AND PROPORTIONS :    1, 0.49       2, 0.51
  7137 347-27-14       27    14.00       2664.    
     MULTIPLE LAYERS AND PROPORTIONS :    1, 0.49       2, 0.51
  7138 347-31-335      31    335.0       2647.    
     MULTIPLE LAYERS AND PROPORTIONS :    1, 0.49       2, 0.51
  7139 347-56-11       56    11.00       2625.    
  7140 347-61-54       61    54.00       2617.    
  7141 347-66-35       66    35.00       2608.    
  7142 341-17-4        17    4.000       2701.    
  7143 524-37-354      37    354.0       2605.    
  7144 524-43-4        43    4.000       2599.    
  7145 524-48-335      48    335.0       2592.    
  7146 524-56-9        56    9.000       2592.    
  7147 524-61-47       61    47.00       2583.    
  7148 524-65-357      65    357.0       2580.    
  7149 524-71-362      71    362.0       2584.    
  7150 3418-43-4       43    4.000       2540.    
     MULTIPLE LAYERS AND PROPORTIONS :    1, 0.74       2, 0.26
  7151 3418-48-362     48    362.0       2529.    
     MULTIPLE LAYERS AND PROPORTIONS :    1, 0.74       2, 0.26
  7152 3418-56-9       56    9.000       2554.    
     MULTIPLE LAYERS AND PROPORTIONS :    1, 0.74       2, 0.26
  7153 3418-65-357     65    357.0       2528.    
     MULTIPLE LAYERS AND PROPORTIONS :    1, 0.74       2, 0.26
  7154 3418-71-362     71    362.0       2567.    
     MULTIPLE LAYERS AND PROPORTIONS :    1, 0.74       2, 0.26
  7155 525-35-347      35    347.0       2563.    
  7156 525-56-9        56    9.000       2518.    
  7157 525-71-362      71    362.0       2568.    
  7158 514-31-335      31    335.0       2560.    
     MULTIPLE LAYERS AND PROPORTIONS :    1, 0.30       2, 0.70
  7159 514-36-360      36    360.0       2541.    
     MULTIPLE LAYERS AND PROPORTIONS :    1, 0.30       2, 0.70
  7160 514-43-4        43    4.000       2545.    
     MULTIPLE LAYERS AND PROPORTIONS :    1, 0.30       2, 0.70
  7161 514-48-362      48    362.0       2545.    
     MULTIPLE LAYERS AND PROPORTIONS :    1, 0.30       2, 0.70
  7162 514-56-9        56    9.000       2548.    
     MULTIPLE LAYERS AND PROPORTIONS :    1, 0.30       2, 0.70
  7163 514-61-47       61    47.00       2536.    
     MULTIPLE LAYERS AND PROPORTIONS :    1, 0.30       2, 0.70
  7164 514-65-357      65    357.0       2542.    
     MULTIPLE LAYERS AND PROPORTIONS :    1, 0.30       2, 0.70
  7165 514-71-362      71    362.0       2568.    
     MULTIPLE LAYERS AND PROPORTIONS :    1, 0.30       2, 0.70
  7166 513-32-41       32    41.00       2552.    
     MULTIPLE LAYERS AND PROPORTIONS :    1, 0.39       2, 0.61
  7167 513-39-60       39    60.00       2558.    
     MULTIPLE LAYERS AND PROPORTIONS :    1, 0.39       2, 0.61
  7168 513-43-4        43    4.000       2538.    
     MULTIPLE LAYERS AND PROPORTIONS :    1, 0.39       2, 0.61
  7169 513-48-362      48    362.0       2544.    
     MULTIPLE LAYERS AND PROPORTIONS :    1, 0.39       2, 0.61
  7170 513-56-9        56    9.000       2553.    
     MULTIPLE LAYERS AND PROPORTIONS :    1, 0.39       2, 0.61
  7171 513-61-47       61    47.00       2533.    
     MULTIPLE LAYERS AND PROPORTIONS :    1, 0.39       2, 0.61
  7172 513-65-357      65    357.0       2541.    
     MULTIPLE LAYERS AND PROPORTIONS :    1, 0.39       2, 0.61
  7173 513-71-362      71    362.0       2568.    
     MULTIPLE LAYERS AND PROPORTIONS :    1, 0.39       2, 0.61
  7174 526-11-307      11    307.0       2603.    
  7175 526-17-53       17    53.00       2591.    
  7176 526-22-38       22    38.00       2579.    
  7177 487-17-4        17    4.000       2600.    
     MULTIPLE LAYERS AND PROPORTIONS :    1, 0.87       2, 0.13
  7178 487-27-10       27    10.00       2590.    
     MULTIPLE LAYERS AND PROPORTIONS :    1, 0.87       2, 0.13
  7179 487-38-6        38    6.000       2565.    
     MULTIPLE LAYERS AND PROPORTIONS :    1, 0.87       2, 0.13
  7180 487-42-356      42    356.0       2539.    
     MULTIPLE LAYERS AND PROPORTIONS :    1, 0.87       2, 0.13
  7181 494-42-355      42    355.0       2519.    
     MULTIPLE LAYERS AND PROPORTIONS :    2, 0.16       3, 0.84
  7182 494-48-334      48    334.0       2533.    
     MULTIPLE LAYERS AND PROPORTIONS :    2, 0.16       3, 0.84
  7183 494-56-10       56    10.00       2544.    
     MULTIPLE LAYERS AND PROPORTIONS :    2, 0.16       3, 0.84
  7184 494-61-60       61    60.00       2518.    
     MULTIPLE LAYERS AND PROPORTIONS :    2, 0.16       3, 0.84
  7185 494-66-49       66    49.00       2535.    
     MULTIPLE LAYERS AND PROPORTIONS :    2, 0.16       3, 0.84
  7186 494-71-33       71    33.00       2549.    
     MULTIPLE LAYERS AND PROPORTIONS :    2, 0.16       3, 0.84
  7187 530-38-6        38    6.000       2527.    
     MULTIPLE LAYERS AND PROPORTIONS :    2, 0.22       3, 0.78
  7188 530-48-334      48    334.0       2529.    
     MULTIPLE LAYERS AND PROPORTIONS :    2, 0.22       3, 0.78
  7189 530-56-10       56    10.00       2531.    
     MULTIPLE LAYERS AND PROPORTIONS :    2, 0.22       3, 0.78
  7190 530-61-60       61    60.00       2523.    
     MULTIPLE LAYERS AND PROPORTIONS :    2, 0.22       3, 0.78
  7191 530-66-49       66    49.00       2543.    
     MULTIPLE LAYERS AND PROPORTIONS :    2, 0.22       3, 0.78
  7192 530-71-33       71    33.00       2549.    
     MULTIPLE LAYERS AND PROPORTIONS :    2, 0.22       3, 0.78
  7193 509-38-6        38    6.000       2536.    
     MULTIPLE LAYERS AND PROPORTIONS :    2, 0.43       3, 0.57
  7194 509-42-355      42    355.0       2502.    
     MULTIPLE LAYERS AND PROPORTIONS :    2, 0.43       3, 0.57
  7195 509-48-334      48    334.0       2532.    
     MULTIPLE LAYERS AND PROPORTIONS :    2, 0.43       3, 0.57
  7196 509-56-10       56    10.00       2532.    
     MULTIPLE LAYERS AND PROPORTIONS :    2, 0.43       3, 0.57
  7197 509-61-60       61    60.00       2516.    
     MULTIPLE LAYERS AND PROPORTIONS :    2, 0.43       3, 0.57
  7198 509-66-49       66    49.00       2535.    
     MULTIPLE LAYERS AND PROPORTIONS :    2, 0.43       3, 0.57
  7199 509-71-33       71    33.00       2542.    
     MULTIPLE LAYERS AND PROPORTIONS :    2, 0.43       3, 0.57
  7200 518-17-3        17    3.000       2603.    
  7201 518-27-11       27    11.00       2565.    
  7202 518-42-355      42    355.0       2539.    
  7203 510-1-358        1    358.0       2622.    
 Observation within a steady-state time step has been moved to the end of the time step.
  7204 495-1-358        1    358.0       2628.    
 Observation within a steady-state time step has been moved to the end of the time step.
  7205 491-7-49         7    49.00       2629.    
  7206 490-7-49         7    49.00       2623.    
  7207 490-17-4        17    4.000       2607.    
  7208 490-27-10       27    10.00       2601.    
  7209 481-38-7        38    7.000       2576.    
     MULTIPLE LAYERS AND PROPORTIONS :    1, 0.11       2, 0.22       3, 0.67
  7210 481-42-355      42    355.0       2557.    
     MULTIPLE LAYERS AND PROPORTIONS :    1, 0.11       2, 0.22       3, 0.67
  7211 481-48-334      48    334.0       2565.    
     MULTIPLE LAYERS AND PROPORTIONS :    1, 0.11       2, 0.22       3, 0.67
  7212 481-56-10       56    10.00       2566.    
     MULTIPLE LAYERS AND PROPORTIONS :    1, 0.11       2, 0.22       3, 0.67
  7213 481-61-60       61    60.00       2548.    
     MULTIPLE LAYERS AND PROPORTIONS :    2, 0.33       3, 0.67
  7214 481-66-49       66    49.00       2562.    
     MULTIPLE LAYERS AND PROPORTIONS :    2, 0.33       3, 0.67
  7215 481-71-33       71    33.00       2568.    
     MULTIPLE LAYERS AND PROPORTIONS :    2, 0.33       3, 0.67
  7216 473-38-7        38    7.000       2580.    
     MULTIPLE LAYERS AND PROPORTIONS :    1, 0.92       2, 0.08
  7217 473-42-355      42    355.0       2563.    
     MULTIPLE LAYERS AND PROPORTIONS :    1, 0.92       2, 0.08
  7218 484-38-6        38    6.000       2395.    
  7219 455-22-51       22    51.00       2600.    
     MULTIPLE LAYERS AND PROPORTIONS :    2, 0.08       3, 0.92
  7220 455-27-11       27    11.00       2605.    
     MULTIPLE LAYERS AND PROPORTIONS :    2, 0.08       3, 0.92
  7221 455-38-7        38    7.000       2560.    
     MULTIPLE LAYERS AND PROPORTIONS :    2, 0.08       3, 0.92
  7222 455-42-355      42    355.0       2542.    
     MULTIPLE LAYERS AND PROPORTIONS :    2, 0.08       3, 0.92
  7223 455-48-336      48    336.0       2559.    
     MULTIPLE LAYERS AND PROPORTIONS :    2, 0.08       3, 0.92
  7224 457-1-358        1    358.0       2645.    
 Observation within a steady-state time step has been moved to the end of the time step.
  7225 456-38-6        38    6.000       2573.    
  7226 456-42-356      42    356.0       2540.    
  7227 456-48-334      48    334.0       2557.    
  7228 456-56-10       56    10.00       2556.    
  7229 456-61-60       61    60.00       2533.    
  7230 456-66-54       66    54.00       2542.    
  7231 456-71-33       71    33.00       2543.    
  7232 454-8-253        8    253.0       2652.    
     MULTIPLE LAYERS AND PROPORTIONS :    2, 0.21       3, 0.79
  7233 454-38-6        38    6.000       2572.    
     MULTIPLE LAYERS AND PROPORTIONS :    2, 0.21       3, 0.79
  7234 454-42-355      42    355.0       2549.    
     MULTIPLE LAYERS AND PROPORTIONS :    2, 0.21       3, 0.79
  7235 454-48-334      48    334.0       2559.    
     MULTIPLE LAYERS AND PROPORTIONS :    2, 0.21       3, 0.79
  7236 454-56-10       56    10.00       2567.    
     MULTIPLE LAYERS AND PROPORTIONS :    2, 0.21       3, 0.79
  7237 454-61-60       61    60.00       2542.    
     MULTIPLE LAYERS AND PROPORTIONS :    2, 0.21       3, 0.79
  7238 454-66-49       66    49.00       2551.    
     MULTIPLE LAYERS AND PROPORTIONS :    2, 0.21       3, 0.79
  7239 454-71-33       71    33.00       2555.    
     MULTIPLE LAYERS AND PROPORTIONS :    2, 0.21       3, 0.79
  7240 483-48-334      48    334.0       2555.    
  7241 475-1-365        1    365.0       2620.    
 Observation within a steady-state time step has been moved to the end of the time step.
  7242 472-17-4        17    4.000       2609.    
     MULTIPLE LAYERS AND PROPORTIONS :    1, 0.47       2, 0.53
  7243 472-27-12       27    12.00       2590.    
     MULTIPLE LAYERS AND PROPORTIONS :    1, 0.47       2, 0.53
  7244 472-38-6        38    6.000       2566.    
     MULTIPLE LAYERS AND PROPORTIONS :    1, 0.47       2, 0.53
  7245 472-42-355      42    355.0       2533.    
     MULTIPLE LAYERS AND PROPORTIONS :    1, 0.47       2, 0.53
  7246 472-48-334      48    334.0       2548.    
     MULTIPLE LAYERS AND PROPORTIONS :    1, 0.47       2, 0.53
  7247 464-17-4        17    4.000       2599.    
  7248 464-27-12       27    12.00       2591.    
  7249 464-48-336      48    336.0       2546.    
  7250 442-71-61       71    61.00       2631.    
  7251 438-48-336      48    336.0       2577.    
  7252 436-71-336      71    336.0       2533.    
  7253 422-17-55       17    55.00       2653.    
  7254 422-22-38       22    38.00       2624.    
  7255 422-27-12       27    12.00       2625.    
  7256 422-31-335      31    335.0       2595.    
  7257 422-38-91       38    91.00       2581.    
  7258 426-48-336      48    336.0       2582.    
  7259 426-56-13       56    13.00       2579.    
  7260 426-66-34       66    34.00       2577.    
  7261 430-7-49         7    49.00       2654.    
  7262 430-17-4        17    4.000       2626.    
  7263 430-27-10       27    10.00       2612.    
  7264 432-38-6        38    6.000       2588.    
     MULTIPLE LAYERS AND PROPORTIONS :    2, 0.26       3, 0.74
  7265 432-42-356      42    356.0       2564.    
     MULTIPLE LAYERS AND PROPORTIONS :    2, 0.26       3, 0.74
  7266 432-48-334      48    334.0       2580.    
     MULTIPLE LAYERS AND PROPORTIONS :    2, 0.26       3, 0.74
  7267 432-56-10       56    10.00       2578.    
     MULTIPLE LAYERS AND PROPORTIONS :    2, 0.26       3, 0.74
  7268 432-61-60       61    60.00       2553.    
     MULTIPLE LAYERS AND PROPORTIONS :    2, 0.26       3, 0.74
  7269 432-66-49       66    49.00       2562.    
     MULTIPLE LAYERS AND PROPORTIONS :    2, 0.26       3, 0.74
  7270 432-71-33       71    33.00       2563.    
     MULTIPLE LAYERS AND PROPORTIONS :    2, 0.26       3, 0.74
  7271 452-48-335      48    335.0       2553.    
  7272 452-56-11       56    11.00       2550.    
  7273 431-1-358        1    358.0       2659.    
 Observation within a steady-state time step has been moved to the end of the time step.
  7274 431-6-340        6    340.0       2656.    
  7275 431-11-333      11    333.0       2649.    
  7276 431-36-38       36    38.00       2623.    
  7277 429-42-356      42    356.0       2535.    
     MULTIPLE LAYERS AND PROPORTIONS :    2, 0.07       3, 0.93
  7278 429-48-334      48    334.0       2555.    
     MULTIPLE LAYERS AND PROPORTIONS :    2, 0.07       3, 0.93
  7279 429-56-11       56    11.00       2556.    
     MULTIPLE LAYERS AND PROPORTIONS :    2, 0.07       3, 0.93
  7280 429-61-60       61    60.00       2526.    
     MULTIPLE LAYERS AND PROPORTIONS :    2, 0.07       3, 0.93
  7281 429-66-54       66    54.00       2537.    
     MULTIPLE LAYERS AND PROPORTIONS :    2, 0.07       3, 0.93
  7282 429-71-33       71    33.00       2536.    
     MULTIPLE LAYERS AND PROPORTIONS :    2, 0.07       3, 0.93
  7283 420-17-7        17    7.000       2664.    
     MULTIPLE LAYERS AND PROPORTIONS :    1, 0.38       2, 0.62
  7284 420-27-10       27    10.00       2631.    
     MULTIPLE LAYERS AND PROPORTIONS :    1, 0.38       2, 0.62
  7285 420-48-335      48    335.0       2595.    
  7286 407-38-6        38    6.000       2581.    
     MULTIPLE LAYERS AND PROPORTIONS :    2, 0.85       3, 0.15
  7287 407-42-355      42    355.0       2554.    
     MULTIPLE LAYERS AND PROPORTIONS :    2, 0.85       3, 0.15
  7288 407-48-334      48    334.0       2561.    
     MULTIPLE LAYERS AND PROPORTIONS :    2, 0.85       3, 0.15
  7289 401-38-6        38    6.000       2603.    
  7290 401-42-355      42    355.0       2590.    
  7291 401-48-335      48    335.0       2603.    
  7292 410-42-355      42    355.0       2552.    
  7293 410-48-334      48    334.0       2569.    
  7294 410-56-10       56    10.00       2565.    
  7295 410-61-60       61    60.00       2542.    
  7296 410-66-49       66    49.00       2542.    
  7297 410-71-33       71    33.00       2532.    
  7298 376-31-348      31    348.0       2628.    
  7299 376-37-19       37    19.00       2619.    
  7300 376-43-47       43    47.00       2613.    
  7301 376-48-343      48    343.0       2612.    
  7302 376-56-11       56    11.00       2610.    
  7303 376-60-321      60    321.0       2601.    
  7304 376-65-298      65    298.0       2592.    
  7305 414-71-365      71    365.0       2596.    
  7306 416-34-357      34    357.0       2620.    
     MULTIPLE LAYERS AND PROPORTIONS :    1, 0.85       2, 0.15
  7307 366-17-55       17    55.00       2706.    
  7308 366-22-33       22    33.00       2684.    
  7309 366-27-10       27    10.00       2661.    
  7310 366-33-10       33    10.00       2665.    
  7311 370-17-55       17    55.00       2688.    
     MULTIPLE LAYERS AND PROPORTIONS :    1, 0.90       2, 0.10
  7312 370-22-46       22    46.00       2656.    
     MULTIPLE LAYERS AND PROPORTIONS :    1, 0.90       2, 0.10
  7313 370-31-335      31    335.0       2635.    
     MULTIPLE LAYERS AND PROPORTIONS :    1, 0.90       2, 0.10
  7314 370-37-91       37    91.00       2621.    
     MULTIPLE LAYERS AND PROPORTIONS :    1, 0.90       2, 0.10
  7315 394-27-10       27    10.00       2646.    
  7316 389-42-355      42    355.0       2540.    
  7317 389-48-334      48    334.0       2565.    
  7318 389-56-10       56    10.00       2558.    
  7319 389-61-60       61    60.00       2538.    
  7320 389-66-48       66    48.00       2533.    
  7321 389-71-33       71    33.00       2536.    
  7322 382-48-334      48    334.0       2611.    
     MULTIPLE LAYERS AND PROPORTIONS :    2, 0.91       3, 0.09
  7323 395-17-4        17    4.000       2679.    
     MULTIPLE LAYERS AND PROPORTIONS :    1, 0.75       2, 0.25
  7324 395-27-13       27    13.00       2665.    
     MULTIPLE LAYERS AND PROPORTIONS :    1, 0.75       2, 0.25
  7325 395-38-6        38    6.000       2584.    
  7326 395-42-356      42    356.0       2555.    
  7327 395-48-334      48    334.0       2577.    
  7328 395-56-11       56    11.00       2573.    
  7329 395-61-60       61    60.00       2524.    
  7330 395-66-54       66    54.00       2507.    
  7331 395-71-33       71    33.00       2530.    
  7332 379-42-356      42    356.0       2562.    
  7333 379-48-334      48    334.0       2586.    
  7334 379-56-11       56    11.00       2583.    
  7335 385-7-49         7    49.00       2700.    
  7336 384-7-49         7    49.00       2698.    
  7337 374-1-358        1    358.0       2693.    
 Observation within a steady-state time step has been moved to the end of the time step.
  7338 362-38-6        38    6.000       2600.    
     MULTIPLE LAYERS AND PROPORTIONS :    2, 0.14       3, 0.86
  7339 362-42-355      42    355.0       2577.    
     MULTIPLE LAYERS AND PROPORTIONS :    2, 0.14       3, 0.86
  7340 362-48-334      48    334.0       2593.    
     MULTIPLE LAYERS AND PROPORTIONS :    2, 0.14       3, 0.86
  7341 362-56-10       56    10.00       2592.    
     MULTIPLE LAYERS AND PROPORTIONS :    2, 0.14       3, 0.86
  7342 362-61-60       61    60.00       2572.    
     MULTIPLE LAYERS AND PROPORTIONS :    2, 0.14       3, 0.86
  7343 362-66-48       66    48.00       2562.    
     MULTIPLE LAYERS AND PROPORTIONS :    2, 0.14       3, 0.86
  7344 362-71-33       71    33.00       2575.    
  7345 360-26-313      26    313.0       2647.    
     MULTIPLE LAYERS AND PROPORTIONS :    1, 0.37       2, 0.34       3, 0.29
  7346 360-38-6        38    6.000       2600.    
     MULTIPLE LAYERS AND PROPORTIONS :    1, 0.37       2, 0.34       3, 0.29
  7347 371-38-6        38    6.000       2598.    
     MULTIPLE LAYERS AND PROPORTIONS :    1, 0.46       2, 0.33       3, 0.21
  7348 371-42-355      42    355.0       2579.    
     MULTIPLE LAYERS AND PROPORTIONS :    1, 0.46       2, 0.33       3, 0.21
  7349 355-48-342      48    342.0       2616.    
  7350 355-56-13       56    13.00       2614.    
  7351 355-61-61       61    61.00       2600.    
  7352 355-66-32       66    32.00       2588.    
  7353 353-1-365        1    365.0       2705.    
 Observation within a steady-state time step has been moved to the end of the time step.
  7354 353-8-22         8    22.00       2704.    
  7355 353-11-304      11    304.0       2703.    
  7356 353-61-61       61    61.00       2610.    
  7357 353-66-32       66    32.00       2603.    
  7358 501-27-60       27    60.00       2646.    
  7359 501-37-32       37    32.00       2639.    
  7360 501-43-53       43    53.00       2640.    
  7361 501-48-336      48    336.0       2640.    
  7362 501-56-17       56    17.00       2639.    
  7363 501-60-320      60    320.0       2639.    
  7364 501-65-299      65    299.0       2639.    
  7365 501-71-365      71    365.0       2638.    
  7366 536-61-52       61    52.00       2579.    
  7367 536-66-18       66    18.00       2575.    
  7368 536-71-62       71    62.00       2575.    
  7369 540-43-50       43    50.00       2603.    
  7370 540-56-17       56    17.00       2588.    
  7371 451-37-32       37    32.00       2707.    
  7372 451-43-53       43    53.00       2715.    
  7373 451-48-336      48    336.0       2727.    
  7374 451-56-17       56    17.00       2744.    
  7375 451-61-52       61    52.00       2743.    
  7376 451-71-336      71    336.0       2764.    
  7377 419-71-61       71    61.00       2695.    
  7378 425-71-61       71    61.00       2749.    
  7379 397-48-336      48    336.0       2815.    
  7380 378-71-61       71    61.00       2711.    
  7381 477-7-99         7    99.00       2664.    
  7382 477-11-60       11    60.00       2664.    
  7383 477-17-53       17    53.00       2663.    
  7384 477-22-39       22    39.00       2662.    
  7385 477-32-6        32    6.000       2659.    
  7386 477-37-32       37    32.00       2648.    
  7387 478-48-335      48    335.0       2652.    
  7388 478-56-17       56    17.00       2645.    
  7389 218-42-337      42    337.0       3145.    
  7390 337-37-343      37    343.0       2555.    
  7391 337-43-14       43    14.00       2542.    
  7392 337-56-12       56    12.00       2564.    
  7393 337-61-61       61    61.00       2546.    
  7394 337-66-31       66    31.00       2536.    
  7395 328-56-11       56    11.00       2652.    
     MULTIPLE LAYERS AND PROPORTIONS :    1, 0.86       2, 0.14
  7396 328-61-61       61    61.00       2636.    
     MULTIPLE LAYERS AND PROPORTIONS :    1, 0.86       2, 0.14
  7397 328-66-32       66    32.00       2627.    
     MULTIPLE LAYERS AND PROPORTIONS :    1, 0.86       2, 0.14
  7398 329-1-365        1    365.0       2746.    
 Observation within a steady-state time step has been moved to the end of the time step.
  7399 327-1-365        1    365.0       2754.    
 Observation within a steady-state time step has been moved to the end of the time step.
  7400 326-26-319      26    319.0       2678.    
     MULTIPLE LAYERS AND PROPORTIONS :    1, 0.24       2, 0.12       3, 0.64
  7401 326-31-335      31    335.0       2666.    
     MULTIPLE LAYERS AND PROPORTIONS :    1, 0.24       2, 0.12       3, 0.64
  7402 326-38-32       38    32.00       2654.    
     MULTIPLE LAYERS AND PROPORTIONS :    1, 0.24       2, 0.13       3, 0.63
  7403 326-56-11       56    11.00       2626.    
     MULTIPLE LAYERS AND PROPORTIONS :    1, 0.24       2, 0.12       3, 0.64
  7404 326-61-54       61    54.00       2609.    
     MULTIPLE LAYERS AND PROPORTIONS :    1, 0.24       2, 0.12       3, 0.64
  7405 326-66-32       66    32.00       2598.    
     MULTIPLE LAYERS AND PROPORTIONS :    1, 0.24       2, 0.12       3, 0.64
  7406 321-43-14       43    14.00       2563.    
  7407 321-56-12       56    12.00       2596.    
  7408 322-1-358        1    358.0       2756.    
 Observation within a steady-state time step has been moved to the end of the time step.
  7409 322-6-340        6    340.0       2750.    
  7410 322-11-333      11    333.0       2738.    
  7411 322-16-301      16    301.0       2717.    
  7412 322-22-46       22    46.00       2703.    
  7413 322-27-32       27    32.00       2691.    
  7414 308-34-333      34    333.0       2660.    
     MULTIPLE LAYERS AND PROPORTIONS :    1, 0.11       2, 0.08       3, 0.81
  7415 316-7-283        7    283.0       2748.    
  7416 316-11-333      11    333.0       2738.    
  7417 316-16-301      16    301.0       2734.    
  7418 316-22-46       22    46.00       2699.    
  7419 316-27-11       27    11.00       2692.    
  7420 316-31-335      31    335.0       2674.    
  7421 316-38-32       38    32.00       2663.    
  7422 316-48-337      48    337.0       2639.    
  7423 316-56-11       56    11.00       2632.    
  7424 316-60-321      60    321.0       2616.    
  7425 316-65-300      65    300.0       2582.    
  7426 310-1-365        1    365.0       2757.    
 Observation within a steady-state time step has been moved to the end of the time step.
  7427 310-27-49       27    49.00       2692.    
  7428 310-56-11       56    11.00       2649.    
  7429 310-61-54       61    54.00       2633.    
  7430 310-66-32       66    32.00       2621.    
  7431 324-1-365        1    365.0       2740.    
 Observation within a steady-state time step has been moved to the end of the time step.
  7432 307-56-11       56    11.00       2680.    
  7433 335-1-365        1    365.0       2755.    
 Observation within a steady-state time step has been moved to the end of the time step.
  7434 333-56-9        56    9.000       2601.    
     MULTIPLE LAYERS AND PROPORTIONS :    2, 0.30       3, 0.70
  7435 323-56-11       56    11.00       2640.    
  7436 323-61-61       61    61.00       2610.    
  7437 311-17-5        17    5.000       2717.    
     MULTIPLE LAYERS AND PROPORTIONS :    1, 0.57       2, 0.27       3, 0.16
  7438 311-27-14       27    14.00       2682.    
     MULTIPLE LAYERS AND PROPORTIONS :    1, 0.57       2, 0.27       3, 0.16
  7439 314-56-25       56    25.00       2590.    
  7440 314-61-62       61    62.00       2580.    
  7441 318-48-343      48    343.0       2595.    
  7442 302-42-348      42    348.0       2592.    
  7443 301-22-62       22    62.00       2697.    
  7444 301-27-6        27    6.000       2674.    
  7445 301-38-32       38    32.00       2639.    
  7446 295-22-62       22    62.00       2740.    
  7447 295-38-5        38    5.000       2669.    
  7448 295-56-24       56    24.00       2659.    
  7449 295-66-32       66    32.00       2645.    
  7450 281-38-5        38    5.000       2639.    
  7451 281-42-348      42    348.0       2619.    
  7452 270-22-62       22    62.00       2711.    
  7453 270-38-32       38    32.00       2656.    
  7454 271-38-5        38    5.000       2645.    
  7455 271-42-348      42    348.0       2625.    
  7456 271-48-337      48    337.0       2650.    
  7457 271-56-10       56    10.00       2638.    
  7458 271-61-61       61    61.00       2623.    
  7459 271-66-61       66    61.00       2620.    
  7460 290-56-25       56    25.00       2624.    
     MULTIPLE LAYERS AND PROPORTIONS :    2, 0.33       3, 0.67
  7461 290-61-62       61    62.00       2610.    
     MULTIPLE LAYERS AND PROPORTIONS :    2, 0.33       3, 0.67
  7462 280-17-4        17    4.000       2729.    
  7463 280-27-14       27    14.00       2698.    
  7464 278-7-274        7    274.0       2772.    
     MULTIPLE LAYERS AND PROPORTIONS :    1, 0.77       2, 0.23
  7465 274-7-274        7    274.0       2767.    
     MULTIPLE LAYERS AND PROPORTIONS :    1, 0.84       2, 0.16
  7466 274-38-7        38    7.000       2670.    
     MULTIPLE LAYERS AND PROPORTIONS :    1, 0.84       2, 0.16
  7467 274-42-355      42    355.0       2647.    
     MULTIPLE LAYERS AND PROPORTIONS :    1, 0.84       2, 0.16
  7468 274-48-335      48    335.0       2671.    
     MULTIPLE LAYERS AND PROPORTIONS :    1, 0.84       2, 0.16
  7469 274-56-11       56    11.00       2668.    
     MULTIPLE LAYERS AND PROPORTIONS :    1, 0.84       2, 0.16
  7470 279-17-5        17    5.000       2745.    
     MULTIPLE LAYERS AND PROPORTIONS :    1, 0.65       2, 0.35
  7471 279-42-355      42    355.0       2665.    
     MULTIPLE LAYERS AND PROPORTIONS :    1, 0.65       2, 0.35
  7472 282-42-355      42    355.0       2655.    
     MULTIPLE LAYERS AND PROPORTIONS :    2, 0.19       3, 0.81
  7473 282-48-335      48    335.0       2666.    
     MULTIPLE LAYERS AND PROPORTIONS :    2, 0.19       3, 0.81
  7474 282-56-11       56    11.00       2674.    
     MULTIPLE LAYERS AND PROPORTIONS :    2, 0.19       3, 0.81
  7475 282-61-60       61    60.00       2656.    
     MULTIPLE LAYERS AND PROPORTIONS :    2, 0.19       3, 0.81
  7476 282-66-48       66    48.00       2645.    
     MULTIPLE LAYERS AND PROPORTIONS :    2, 0.19       3, 0.81
  7477 265-42-355      42    355.0       2668.    
     MULTIPLE LAYERS AND PROPORTIONS :    2, 0.13       3, 0.87
  7478 265-48-335      48    335.0       2690.    
     MULTIPLE LAYERS AND PROPORTIONS :    2, 0.13       3, 0.87
  7479 265-56-11       56    11.00       2688.    
     MULTIPLE LAYERS AND PROPORTIONS :    2, 0.13       3, 0.87
  7480 265-61-60       61    60.00       2671.    
     MULTIPLE LAYERS AND PROPORTIONS :    2, 0.13       3, 0.87
  7481 265-66-48       66    48.00       2660.    
     MULTIPLE LAYERS AND PROPORTIONS :    2, 0.13       3, 0.87
  7482 265-71-34       71    34.00       2645.    
     MULTIPLE LAYERS AND PROPORTIONS :    2, 0.13       3, 0.87
  7483 264-38-7        38    7.000       2690.    
  7484 264-42-355      42    355.0       2677.    
  7485 264-48-335      48    335.0       2699.    
  7486 264-56-11       56    11.00       2697.    
  7487 264-61-60       61    60.00       2681.    
  7488 264-66-48       66    48.00       2672.    
  7489 264-71-34       71    34.00       2654.    
  7490 268-1-365        1    365.0       2783.    
 Observation within a steady-state time step has been moved to the end of the time step.
  7491 268-38-7        38    7.000       2681.    
  7492 268-43-47       43    47.00       2665.    
  7493 268-48-335      48    335.0       2686.    
  7494 250-7-274        7    274.0       2785.    
     MULTIPLE LAYERS AND PROPORTIONS :    2, 0.02       3, 0.98
  7495 250-17-5        17    5.000       2760.    
     MULTIPLE LAYERS AND PROPORTIONS :    2, 0.02       3, 0.98
  7496 250-38-7        38    7.000       2695.    
     MULTIPLE LAYERS AND PROPORTIONS :    2, 0.02       3, 0.98
  7497 250-42-355      42    355.0       2675.    
     MULTIPLE LAYERS AND PROPORTIONS :    2, 0.02       3, 0.98
  7498 250-56-11       56    11.00       2696.    
     MULTIPLE LAYERS AND PROPORTIONS :    2, 0.02       3, 0.98
  7499 250-61-60       61    60.00       2679.    
     MULTIPLE LAYERS AND PROPORTIONS :    2, 0.02       3, 0.98
  7500 250-66-48       66    48.00       2666.    
     MULTIPLE LAYERS AND PROPORTIONS :    2, 0.02       3, 0.98
  7501 250-71-34       71    34.00       2638.    
     MULTIPLE LAYERS AND PROPORTIONS :    2, 0.02       3, 0.98
  7502 252-48-335      48    335.0       2702.    
     MULTIPLE LAYERS AND PROPORTIONS :    1, 0.52       2, 0.48
  7503 256-42-355      42    355.0       2668.    
     MULTIPLE LAYERS AND PROPORTIONS :    2, 0.11       3, 0.89
  7504 256-48-335      48    335.0       2696.    
     MULTIPLE LAYERS AND PROPORTIONS :    2, 0.11       3, 0.89
  7505 256-56-11       56    11.00       2694.    
     MULTIPLE LAYERS AND PROPORTIONS :    2, 0.11       3, 0.89
  7506 256-61-60       61    60.00       2678.    
     MULTIPLE LAYERS AND PROPORTIONS :    2, 0.11       3, 0.89
  7507 256-66-48       66    48.00       2664.    
     MULTIPLE LAYERS AND PROPORTIONS :    2, 0.11       3, 0.89
  7508 256-71-34       71    34.00       2646.    
     MULTIPLE LAYERS AND PROPORTIONS :    2, 0.11       3, 0.89
  7509 261-17-5        17    5.000       2756.    
     MULTIPLE LAYERS AND PROPORTIONS :    1, 0.40       2, 0.42       3, 0.18
  7510 261-17-64       17    64.00       2755.    
     MULTIPLE LAYERS AND PROPORTIONS :    1, 0.40       2, 0.42       3, 0.18
  7511 261-22-41       22    41.00       2740.    
     MULTIPLE LAYERS AND PROPORTIONS :    1, 0.40       2, 0.42       3, 0.18
  7512 262-48-338      48    338.0       2688.    
  7513 262-56-9        56    9.000       2670.    
  7514 262-61-62       61    62.00       2657.    
  7515 247-1-365        1    365.0       2801.    
 Observation within a steady-state time step has been moved to the end of the time step.
  7516 247-7-291        7    291.0       2788.    
  7517 247-27-11       27    11.00       2742.    
  7518 266-36-1        36    1.000       2669.    
  7519 260-48-338      48    338.0       2665.    
  7520 259-56-9        56    9.000       2660.    
  7521 259-61-62       61    62.00       2645.    
  7522 259-66-47       66    47.00       2639.    
  7523 259-71-35       71    35.00       2623.    
  7524 269-38-4        38    4.000       2752.    
  7525 269-42-337      42    337.0       2753.    
  7526 269-48-337      48    337.0       2751.    
  7527 269-56-10       56    10.00       2789.    
  7528 269-61-61       61    61.00       2739.    
  7529 269-66-61       66    61.00       2740.    
  7530 257-56-10       56    10.00       2794.    
  7531 257-61-61       61    61.00       2727.    
  7532 257-66-61       66    61.00       2727.    
  7533 254-38-4        38    4.000       2773.    
  7534 254-42-337      42    337.0       2764.    
  7535 253-48-337      48    337.0       2672.    
     MULTIPLE LAYERS AND PROPORTIONS :    2, 0.03       3, 0.97
  7536 253-56-10       56    10.00       2666.    
     MULTIPLE LAYERS AND PROPORTIONS :    2, 0.03       3, 0.97
  7537 253-61-61       61    61.00       2650.    
     MULTIPLE LAYERS AND PROPORTIONS :    2, 0.03       3, 0.97
  7538 253-66-61       66    61.00       2644.    
     MULTIPLE LAYERS AND PROPORTIONS :    2, 0.03       3, 0.97
  7539 248-38-5        38    5.000       3160.    
  7540 248-42-337      42    337.0       3166.    
  7541 248-48-337      48    337.0       3163.    
  7542 241-48-337      48    337.0       2702.    
  7543 241-56-10       56    10.00       2707.    
  7544 241-61-61       61    61.00       2686.    
  7545 241-66-61       66    61.00       2675.    
  7546 229-48-337      48    337.0       2738.    
  7547 229-56-11       56    11.00       2746.    
  7548 242-38-4        38    4.000       2809.    
  7549 242-42-337      42    337.0       2781.    
  7550 243-56-10       56    10.00       2838.    
  7551 238-56-10       56    10.00       2830.    
  7552 235-56-10       56    10.00       2846.    
  7553 228-38-5        38    5.000       2831.    
  7554 228-42-348      42    348.0       2788.    
  7555 228-48-337      48    337.0       2776.    
  7556 230-48-337      48    337.0       2783.    
     MULTIPLE LAYERS AND PROPORTIONS :    2, 0.19       3, 0.81
  7557 230-56-10       56    10.00       2815.    
     MULTIPLE LAYERS AND PROPORTIONS :    2, 0.19       3, 0.81
  7558 232-31-335      31    335.0       2744.    
     MULTIPLE LAYERS AND PROPORTIONS :    1, 0.11       2, 0.21       3, 0.68
  7559 232-37-361      37    361.0       2729.    
     MULTIPLE LAYERS AND PROPORTIONS :    1, 0.11       2, 0.21       3, 0.68
  7560 232-48-337      48    337.0       2731.    
     MULTIPLE LAYERS AND PROPORTIONS :    2, 0.32       3, 0.68
  7561 232-56-9        56    9.000       2734.    
     MULTIPLE LAYERS AND PROPORTIONS :    2, 0.32       3, 0.68
  7562 232-61-62       61    62.00       2717.    
     MULTIPLE LAYERS AND PROPORTIONS :    2, 0.32       3, 0.68
  7563 232-66-47       66    47.00       2700.    
     MULTIPLE LAYERS AND PROPORTIONS :    2, 0.32       3, 0.68
  7564 232-71-35       71    35.00       2670.    
     MULTIPLE LAYERS AND PROPORTIONS :    2, 0.32       3, 0.68
  7565 237-17-5        17    5.000       2766.    
  7566 237-27-11       27    11.00       2752.    
  7567 237-37-357      37    357.0       2710.    
  7568 237-42-355      42    355.0       2690.    
  7569 237-48-335      48    335.0       2716.    
  7570 237-56-11       56    11.00       2716.    
  7571 237-61-60       61    60.00       2699.    
  7572 237-66-48       66    48.00       2684.    
  7573 237-71-34       71    34.00       2664.    
  7574 239-1-365        1    365.0       2805.    
 Observation within a steady-state time step has been moved to the end of the time step.
     MULTIPLE LAYERS AND PROPORTIONS :    1, 0.69       2, 0.31
  7575 239-42-355      42    355.0       2688.    
     MULTIPLE LAYERS AND PROPORTIONS :    1, 0.69       2, 0.31
  7576 240-22-1        22    1.000       2744.    
     MULTIPLE LAYERS AND PROPORTIONS :    1, 0.17       2, 0.28       3, 0.55
  7577 240-38-7        38    7.000       2714.    
     MULTIPLE LAYERS AND PROPORTIONS :    1, 0.17       2, 0.28       3, 0.55
  7578 240-48-335      48    335.0       2719.    
     MULTIPLE LAYERS AND PROPORTIONS :    1, 0.17       2, 0.28       3, 0.55
  7579 240-56-10       56    10.00       2718.    
     MULTIPLE LAYERS AND PROPORTIONS :    1, 0.17       2, 0.28       3, 0.55
  7580 240-66-48       66    48.00       2686.    
     MULTIPLE LAYERS AND PROPORTIONS :    1, 0.17       2, 0.28       3, 0.55
  7581 240-71-34       71    34.00       2661.    
     MULTIPLE LAYERS AND PROPORTIONS :    1, 0.17       2, 0.28       3, 0.55
  7582 231-48-335      48    335.0       2732.    
  7583 231-56-10       56    10.00       2732.    
  7584 233-17-5        17    5.000       2781.    
     MULTIPLE LAYERS AND PROPORTIONS :    1, 0.51       2, 0.44       3, 0.05
  7585 233-38-7        38    7.000       2712.    
     MULTIPLE LAYERS AND PROPORTIONS :    1, 0.51       2, 0.44       3, 0.05
  7586 233-42-355      42    355.0       2695.    
     MULTIPLE LAYERS AND PROPORTIONS :    1, 0.51       2, 0.44       3, 0.05
  7587 234-42-355      42    355.0       2694.    
     MULTIPLE LAYERS AND PROPORTIONS :    1, 0.14       2, 0.11       3, 0.75
  7588 234-48-335      48    335.0       2714.    
     MULTIPLE LAYERS AND PROPORTIONS :    1, 0.14       2, 0.11       3, 0.75
  7589 234-56-10       56    10.00       2718.    
     MULTIPLE LAYERS AND PROPORTIONS :    1, 0.14       2, 0.11       3, 0.75
  7590 234-60-322      60    322.0       2701.    
     MULTIPLE LAYERS AND PROPORTIONS :    1, 0.14       2, 0.11       3, 0.75
  7591 234-66-48       66    48.00       2688.    
     MULTIPLE LAYERS AND PROPORTIONS :    1, 0.15       2, 0.10       3, 0.75
  7592 234-71-34       71    34.00       2667.    
     MULTIPLE LAYERS AND PROPORTIONS :    1, 0.15       2, 0.10       3, 0.75
  7593 213-1-310        1    310.0       2835.    
 Observation within a steady-state time step has been moved to the end of the time step.
  7594 213-6-310        6    310.0       2829.    
  7595 213-27-11       27    11.00       2792.    
  7596 213-42-355      42    355.0       2739.    
  7597 216-7-291        7    291.0       2818.    
     MULTIPLE LAYERS AND PROPORTIONS :    1, 0.65       2, 0.35
  7598 216-22-32       22    32.00       2787.    
     MULTIPLE LAYERS AND PROPORTIONS :    1, 0.65       2, 0.35
  7599 216-27-11       27    11.00       2793.    
     MULTIPLE LAYERS AND PROPORTIONS :    1, 0.65       2, 0.35
  7600 216-38-7        38    7.000       2738.    
     MULTIPLE LAYERS AND PROPORTIONS :    1, 0.65       2, 0.35
  7601 216-42-355      42    355.0       2732.    
     MULTIPLE LAYERS AND PROPORTIONS :    1, 0.65       2, 0.35
  7602 210-1-365        1    365.0       2843.    
 Observation within a steady-state time step has been moved to the end of the time step.
  7603 210-38-7        38    7.000       2742.    
  7604 210-42-355      42    355.0       2745.    
  7605 210-48-335      48    335.0       2770.    
  7606 210-56-11       56    11.00       2775.    
  7607 189-17-6        17    6.000       2827.    
     MULTIPLE LAYERS AND PROPORTIONS :    1, 0.75       2, 0.25
  7608 189-22-54       22    54.00       2812.    
     MULTIPLE LAYERS AND PROPORTIONS :    1, 0.75       2, 0.25
  7609 189-27-11       27    11.00       2814.    
     MULTIPLE LAYERS AND PROPORTIONS :    1, 0.75       2, 0.25
  7610 189-38-7        38    7.000       2772.    
     MULTIPLE LAYERS AND PROPORTIONS :    1, 0.75       2, 0.25
  7611 189-42-355      42    355.0       2762.    
     MULTIPLE LAYERS AND PROPORTIONS :    1, 0.75       2, 0.25
  7612 189-48-335      48    335.0       2793.    
     MULTIPLE LAYERS AND PROPORTIONS :    1, 0.75       2, 0.25
  7613 189-56-9        56    9.000       2797.    
     MULTIPLE LAYERS AND PROPORTIONS :    1, 0.75       2, 0.25
  7614 189-61-60       61    60.00       2779.    
     MULTIPLE LAYERS AND PROPORTIONS :    1, 0.75       2, 0.25
  7615 189-66-48       66    48.00       2761.    
     MULTIPLE LAYERS AND PROPORTIONS :    1, 0.75       2, 0.25
  7616 189-71-34       71    34.00       2738.    
     MULTIPLE LAYERS AND PROPORTIONS :    1, 0.75       2, 0.25
  7617 200-38-7        38    7.000       2760.    
     MULTIPLE LAYERS AND PROPORTIONS :    2, 0.18       3, 0.82
  7618 200-42-356      42    356.0       2747.    
     MULTIPLE LAYERS AND PROPORTIONS :    2, 0.18       3, 0.82
  7619 200-48-335      48    335.0       2776.    
     MULTIPLE LAYERS AND PROPORTIONS :    2, 0.18       3, 0.82
  7620 200-56-9        56    9.000       2778.    
     MULTIPLE LAYERS AND PROPORTIONS :    2, 0.18       3, 0.82
  7621 200-61-60       61    60.00       2756.    
     MULTIPLE LAYERS AND PROPORTIONS :    2, 0.18       3, 0.82
  7622 200-66-48       66    48.00       2745.    
     MULTIPLE LAYERS AND PROPORTIONS :    2, 0.18       3, 0.82
  7623 201-38-7        38    7.000       2774.    
     MULTIPLE LAYERS AND PROPORTIONS :    2, 0.10       3, 0.90
  7624 201-42-356      42    356.0       2759.    
     MULTIPLE LAYERS AND PROPORTIONS :    2, 0.08       3, 0.92
  7625 201-48-335      48    335.0       2782.    
     MULTIPLE LAYERS AND PROPORTIONS :    2, 0.08       3, 0.92
  7626 201-56-11       56    11.00       2786.    
     MULTIPLE LAYERS AND PROPORTIONS :    2, 0.08       3, 0.92
  7627 201-61-60       61    60.00       2769.    
     MULTIPLE LAYERS AND PROPORTIONS :    2, 0.08       3, 0.92
  7628 201-66-48       66    48.00       2753.    
     MULTIPLE LAYERS AND PROPORTIONS :    2, 0.08       3, 0.92
  7629 201-71-34       71    34.00       2730.    
     MULTIPLE LAYERS AND PROPORTIONS :    2, 0.08       3, 0.92
  7630 199-17-5        17    5.000       2814.    
  7631 199-22-54       22    54.00       2800.    
  7632 199-27-11       27    11.00       2801.    
  7633 199-38-7        38    7.000       2764.    
  7634 199-42-356      42    356.0       2749.    
  7635 199-48-335      48    335.0       2776.    
  7636 217-38-5        38    5.000       2864.    
  7637 217-42-348      42    348.0       2813.    
  7638 220-38-5        38    5.000       2851.    
     MULTIPLE LAYERS AND PROPORTIONS :    2, 0.13       3, 0.87
  7639 220-42-348      42    348.0       2800.    
     MULTIPLE LAYERS AND PROPORTIONS :    2, 0.13       3, 0.87
  7640 220-56-10       56    10.00       2804.    
     MULTIPLE LAYERS AND PROPORTIONS :    2, 0.13       3, 0.87
  7641 220-61-61       61    61.00       2795.    
     MULTIPLE LAYERS AND PROPORTIONS :    2, 0.13       3, 0.87
  7642 220-66-61       66    61.00       2776.    
     MULTIPLE LAYERS AND PROPORTIONS :    2, 0.13       3, 0.87
  7643 204-38-5        38    5.000       2852.    
  7644 204-42-348      42    348.0       2799.    
  7645 202-38-5        38    5.000       2854.    
     MULTIPLE LAYERS AND PROPORTIONS :    2, 0.17       3, 0.83
  7646 202-42-348      42    348.0       2802.    
     MULTIPLE LAYERS AND PROPORTIONS :    2, 0.17       3, 0.83
  7647 198-39-190      39    190.0       2868.    
     MULTIPLE LAYERS AND PROPORTIONS :    2, 0.25       3, 0.75
  7648 194-39-138      39    138.0       2833.    
     MULTIPLE LAYERS AND PROPORTIONS :    2, 0.39       3, 0.61
  7649 190-56-10       56    10.00       2810.    
  7650 190-61-61       61    61.00       2802.    
  7651 192-38-5        38    5.000       2853.    
  7652 192-42-337      42    337.0       2813.    
  7653 191-39-212      39    212.0       2856.    
     MULTIPLE LAYERS AND PROPORTIONS :    2, 0.28       3, 0.72
  7654 193-38-5        38    5.000       2848.    
     MULTIPLE LAYERS AND PROPORTIONS :    2, 0.09       3, 0.91
  7655 193-42-348      42    348.0       2815.    
     MULTIPLE LAYERS AND PROPORTIONS :    2, 0.09       3, 0.91
  7656 188-56-10       56    10.00       2883.    
  7657 188-61-61       61    61.00       2874.    
  7658 188-66-61       66    61.00       2864.    
  7659 187-56-10       56    10.00       2840.    
  7660 187-61-61       61    61.00       2840.    
  7661 187-66-62       66    62.00       2815.    
  7662 179-48-337      48    337.0       2866.    
  7663 14-1-365         1    365.0       2884.    
 Observation within a steady-state time step has been moved to the end of the time step.
  7664 185-1-365        1    365.0       2853.    
 Observation within a steady-state time step has been moved to the end of the time step.
  7665 185-10-60       10    60.00       2822.    
  7666 185-38-7        38    7.000       2754.    
  7667 185-42-355      42    355.0       2750.    
  7668 181-38-7        38    7.000       2780.    
     MULTIPLE LAYERS AND PROPORTIONS :    2, 0.26       3, 0.74
  7669 181-48-335      48    335.0       2809.    
     MULTIPLE LAYERS AND PROPORTIONS :    2, 0.26       3, 0.74
  7670 181-56-11       56    11.00       2813.    
     MULTIPLE LAYERS AND PROPORTIONS :    2, 0.26       3, 0.74
  7671 181-61-60       61    60.00       2798.    
     MULTIPLE LAYERS AND PROPORTIONS :    2, 0.26       3, 0.74
  7672 181-66-48       66    48.00       2777.    
     MULTIPLE LAYERS AND PROPORTIONS :    2, 0.26       3, 0.74
  7673 181-71-34       71    34.00       2755.    
     MULTIPLE LAYERS AND PROPORTIONS :    2, 0.26       3, 0.74
  7674 186-48-335      48    335.0       2805.    
  7675 183-48-335      48    335.0       2811.    
  7676 182-42-355      42    355.0       2777.    
     MULTIPLE LAYERS AND PROPORTIONS :    2, 0.27       3, 0.73
  7677 182-48-335      48    335.0       2810.    
     MULTIPLE LAYERS AND PROPORTIONS :    2, 0.27       3, 0.73
  7678 182-56-9        56    9.000       2809.    
     MULTIPLE LAYERS AND PROPORTIONS :    2, 0.27       3, 0.73
  7679 182-61-60       61    60.00       2795.    
     MULTIPLE LAYERS AND PROPORTIONS :    2, 0.27       3, 0.73
  7680 182-66-48       66    48.00       2776.    
     MULTIPLE LAYERS AND PROPORTIONS :    2, 0.27       3, 0.73
  7681 182-71-34       71    34.00       2755.    
     MULTIPLE LAYERS AND PROPORTIONS :    2, 0.27       3, 0.73
  7682 180-48-335      48    335.0       2822.    
  7683 184-12-80       12    80.00       2841.    
  7684 184-17-60       17    60.00       2837.    
  7685 184-22-62       22    62.00       2827.    
  7686 184-27-6        27    6.000       2812.    
  7687 184-31-335      31    335.0       2811.    
  7688 184-37-32       37    32.00       2792.    
  7689 184-42-299      42    299.0       2779.    
  7690 184-48-337      48    337.0       2809.    
  7691 184-56-12       56    12.00       2811.    
  7692 184-66-55       66    55.00       2790.    
  7693 305-56-11       56    11.00       2722.    
  7694 305-61-61       61    61.00       2678.    
  7695 305-66-32       66    32.00       2682.    
  7696 325-37-344      37    344.0       2646.    
  7697 325-43-14       43    14.00       2634.    
  7698 325-48-342      48    342.0       2649.    
  7699 325-56-12       56    12.00       2656.    
  7700 325-61-61       61    61.00       2621.    
  7701 325-66-31       66    31.00       2611.    
  7702 292-61-61       61    61.00       2675.    
  7703 296-26-321      26    321.0       2728.    
  7704 296-31-335      31    335.0       2715.    
  7705 296-37-344      37    344.0       2709.    
  7706 296-43-14       43    14.00       2705.    
  7707 296-48-342      48    342.0       2701.    
  7708 296-56-11       56    11.00       2697.    
  7709 296-60-321      60    321.0       2692.    
  7710 296-65-300      65    300.0       2686.    
     MULTIPLE LAYERS AND PROPORTIONS :    1, 0.20       2, 0.80
  7711 297-17-4        17    4.000       2731.    
     MULTIPLE LAYERS AND PROPORTIONS :    1, 0.20       2, 0.80
  7712 297-22-54       22    54.00       2722.    
     MULTIPLE LAYERS AND PROPORTIONS :    1, 0.20       2, 0.80
  7713 297-27-11       27    11.00       2713.    
     MULTIPLE LAYERS AND PROPORTIONS :    1, 0.20       2, 0.80
  7714 297-56-12       56    12.00       2681.    
  7715 297-61-61       61    61.00       2671.    
  7716 297-66-32       66    32.00       2665.    
  7717 272-33-177      33    177.0       2743.    
  7718 245-48-342      48    342.0       2722.    
  7719 245-56-12       56    12.00       2719.    
  7720 221-33-346      33    346.0       2759.    
     MULTIPLE LAYERS AND PROPORTIONS :    1, 0.25       2, 0.75
  7721 222-48-343      48    343.0       2744.    
  7722 222-56-9        56    9.000       2758.    
  7723 222-61-60       61    60.00       2739.    
  7724 222-66-54       66    54.00       2735.    
  7725 222-71-34       71    34.00       2721.    
  7726 223-48-343      48    343.0       2746.    
     MULTIPLE LAYERS AND PROPORTIONS :    2, 0.87       3, 0.13
  7727 223-56-9        56    9.000       2750.    
     MULTIPLE LAYERS AND PROPORTIONS :    2, 0.87       3, 0.13
  7728 223-61-60       61    60.00       2738.    
     MULTIPLE LAYERS AND PROPORTIONS :    2, 0.87       3, 0.13
  7729 223-71-35       71    35.00       2720.    
     MULTIPLE LAYERS AND PROPORTIONS :    2, 0.87       3, 0.13
  7730 219-71-365      71    365.0       2723.    
  7731 102-43-8        43    8.000       2972.    
  7732 102-48-344      48    344.0       2995.    
  7733 92-71-40        71    40.00       2989.    
  7734 177-17-6        17    6.000       2858.    
  7735 177-38-7        38    7.000       2790.    
  7736 177-42-355      42    355.0       2803.    
  7737 177-48-335      48    335.0       2861.    
  7738 169-38-4        38    4.000       2773.    
     MULTIPLE LAYERS AND PROPORTIONS :    1, 0.24       2, 0.32       3, 0.44
  7739 169-42-334      42    334.0       2779.    
     MULTIPLE LAYERS AND PROPORTIONS :    1, 0.24       2, 0.32       3, 0.44
  7740 169-56-11       56    11.00       2818.    
     MULTIPLE LAYERS AND PROPORTIONS :    1, 0.24       2, 0.32       3, 0.44
  7741 168-1-365        1    365.0       2887.    
 Observation within a steady-state time step has been moved to the end of the time step.
     MULTIPLE LAYERS AND PROPORTIONS :    1, 0.82       2, 0.18
  7742 170-38-7        38    7.000       2782.    
  7743 170-42-355      42    355.0       2793.    
     MULTIPLE LAYERS AND PROPORTIONS :    1, 0.07       2, 0.10       3, 0.83
  7744 170-48-335      48    335.0       2831.    
     MULTIPLE LAYERS AND PROPORTIONS :    1, 0.07       2, 0.10       3, 0.83
  7745 170-56-9        56    9.000       2827.    
     MULTIPLE LAYERS AND PROPORTIONS :    1, 0.07       2, 0.10       3, 0.83
  7746 170-61-60       61    60.00       2821.    
     MULTIPLE LAYERS AND PROPORTIONS :    1, 0.07       2, 0.10       3, 0.83
  7747 170-66-48       66    48.00       2798.    
     MULTIPLE LAYERS AND PROPORTIONS :    1, 0.07       2, 0.10       3, 0.83
  7748 170-71-34       71    34.00       2780.    
  7749 176-1-280        1    280.0       2880.    
 Observation within a steady-state time step has been moved to the end of the time step.
     MULTIPLE LAYERS AND PROPORTIONS :    1, 0.77       2, 0.23
  7750 176-6-340        6    340.0       2875.    
     MULTIPLE LAYERS AND PROPORTIONS :    1, 0.77       2, 0.23
  7751 176-11-333      11    333.0       2858.    
     MULTIPLE LAYERS AND PROPORTIONS :    1, 0.77       2, 0.23
  7752 176-16-332      16    332.0       2862.    
     MULTIPLE LAYERS AND PROPORTIONS :    1, 0.77       2, 0.23
  7753 176-38-7        38    7.000       2791.    
     MULTIPLE LAYERS AND PROPORTIONS :    1, 0.77       2, 0.23
  7754 172-12-80       12    80.00       2883.    
  7755 172-17-60       17    60.00       2875.    
  7756 172-22-62       22    62.00       2868.    
  7757 172-27-6        27    6.000       2860.    
  7758 172-31-344      31    344.0       2859.    
  7759 172-36-335      36    335.0       2848.    
  7760 172-48-335      48    335.0       2848.    
  7761 172-56-11       56    11.00       2853.    
  7762 172-61-59       61    59.00       2852.    
  7763 171-43-47       43    47.00       2829.    
  7764 171-48-335      48    335.0       2851.    
  7765 171-56-11       56    11.00       2853.    
  7766 171-60-322      60    322.0       2853.    
  7767 171-65-298      65    298.0       2837.    
  7768 171-71-13       71    13.00       2807.    
  7769 164-33-152      33    152.0       2848.    
     MULTIPLE LAYERS AND PROPORTIONS :    1, 0.12       2, 0.88
  7770 167-48-335      48    335.0       2864.    
  7771 167-56-11       56    11.00       2866.    
  7772 166-61-56       61    56.00       2871.    
  7773 166-66-53       66    53.00       2858.    
  7774 166-71-35       71    35.00       2829.    
  7775 178-48-336      48    336.0       2871.    
  7776 178-56-11       56    11.00       2816.    
  7777 174-48-336      48    336.0       2870.    
  7778 161-48-336      48    336.0       2887.    
  7779 161-56-11       56    11.00       2895.    
  7780 161-61-56       61    56.00       2887.    
  7781 161-66-54       66    54.00       2878.    
  7782 161-71-41       71    41.00       2860.    
  7783 153-48-335      48    335.0       2915.    
  7784 163-48-336      48    336.0       2902.    
  7785 163-56-11       56    11.00       2903.    
  7786 163-61-59       61    59.00       2896.    
  7787 163-66-54       66    54.00       2886.    
  7788 163-71-41       71    41.00       2865.    
  7789 156-48-336      48    336.0       2913.    
  7790 156-56-11       56    11.00       2916.    
  7791 157-1-358        1    358.0       2927.    
 Observation within a steady-state time step has been moved to the end of the time step.
  7792 157-22-54       22    54.00       2887.    
  7793 157-27-11       27    11.00       2885.    
  7794 157-31-348      31    348.0       2874.    
  7795 157-37-22       37    22.00       2831.    
  7796 157-43-47       43    47.00       2842.    
  7797 157-48-335      48    335.0       2888.    
  7798 157-56-9        56    9.000       2903.    
  7799 157-60-322      60    322.0       2872.    
  7800 157-65-298      65    298.0       2859.    
  7801 157-71-365      71    365.0       2824.    
  7802 154-42-341      42    341.0       2833.    
  7803 159-38-4        38    4.000       2783.    
     MULTIPLE LAYERS AND PROPORTIONS :    1, 0.15       2, 0.36       3, 0.49
  7804 159-56-11       56    11.00       2840.    
     MULTIPLE LAYERS AND PROPORTIONS :    1, 0.15       2, 0.36       3, 0.49
  7805 147-38-4        38    4.000       2820.    
     MULTIPLE LAYERS AND PROPORTIONS :    1, 0.22       2, 0.26       3, 0.52
  7806 147-42-334      42    334.0       2820.    
     MULTIPLE LAYERS AND PROPORTIONS :    1, 0.22       2, 0.26       3, 0.52
  7807 147-56-11       56    11.00       2889.    
     MULTIPLE LAYERS AND PROPORTIONS :    1, 0.22       2, 0.26       3, 0.52
  7808 149-1-280        1    280.0       2945.    
 Observation within a steady-state time step has been moved to the end of the time step.
  7809 150-48-335      48    335.0       2923.    
  7810 150-56-9        56    9.000       2926.    
  7811 137-48-335      48    335.0       2944.    
  7812 137-56-9        56    9.000       2949.    
  7813 137-61-56       61    56.00       2937.    
  7814 137-66-53       66    53.00       2922.    
  7815 136-38-4        38    4.000       2860.    
     MULTIPLE LAYERS AND PROPORTIONS :    2, 0.22       3, 0.78
  7816 136-42-341      42    341.0       2880.    
     MULTIPLE LAYERS AND PROPORTIONS :    2, 0.22       3, 0.78
  7817 136-56-11       56    11.00       2894.    
     MULTIPLE LAYERS AND PROPORTIONS :    2, 0.22       3, 0.78
  7818 152-48-336      48    336.0       2949.    
  7819 129-17-5        17    5.000       2953.    
  7820 129-27-11       27    11.00       2944.    
  7821 123-42-348      42    348.0       2909.    
     MULTIPLE LAYERS AND PROPORTIONS :    2, 0.26       3, 0.74
  7822 128-42-348      42    348.0       2921.    
  7823 128-56-11       56    11.00       2970.    
  7824 133-12-362      12    362.0       2936.    
  7825 133-17-61       17    61.00       2933.    
  7826 133-27-6        27    6.000       2925.    
  7827 133-31-335      31    335.0       2913.    
  7828 133-38-4        38    4.000       2866.    
  7829 133-42-341      42    341.0       2885.    
  7830 133-48-335      48    335.0       2937.    
  7831 133-56-9        56    9.000       2956.    
  7832 133-71-365      71    365.0       2871.    
  7833 127-1-365        1    365.0       2959.    
 Observation within a steady-state time step has been moved to the end of the time step.
  7834 127-17-1        17    1.000       2959.    
  7835 130-42-341      42    341.0       2915.    
     MULTIPLE LAYERS AND PROPORTIONS :    2, 0.39       3, 0.61
  7836 130-48-335      48    335.0       2949.    
     MULTIPLE LAYERS AND PROPORTIONS :    2, 0.39       3, 0.61
  7837 130-56-9        56    9.000       2964.    
     MULTIPLE LAYERS AND PROPORTIONS :    2, 0.39       3, 0.61
  7838 126-27-11       27    11.00       2934.    
  7839 135-48-336      48    336.0       2897.    
  7840 135-56-9        56    9.000       2902.    
  7841 122-48-336      48    336.0       2920.    
  7842 120-12-310      12    310.0       2972.    
  7843 120-17-5        17    5.000       2968.    
  7844 120-27-6        27    6.000       2963.    
  7845 120-31-335      31    335.0       2964.    
  7846 120-37-32       37    32.00       2931.    
  7847 120-42-341      42    341.0       2947.    
  7848 120-48-336      48    336.0       2976.    
  7849 120-56-10       56    10.00       2983.    
  7850 120-61-59       61    59.00       2968.    
  7851 120-65-292      65    292.0       2963.    
  7852 120-71-365      71    365.0       2938.    
  7853 118-38-4        38    4.000       2903.    
     MULTIPLE LAYERS AND PROPORTIONS :    2, 0.23       3, 0.77
  7854 118-42-341      42    341.0       2933.    
     MULTIPLE LAYERS AND PROPORTIONS :    2, 0.22       3, 0.78
  7855 118-48-349      48    349.0       2960.    
     MULTIPLE LAYERS AND PROPORTIONS :    2, 0.22       3, 0.78
  7856 118-56-10       56    10.00       2964.    
     MULTIPLE LAYERS AND PROPORTIONS :    2, 0.22       3, 0.78
  7857 107-27-69       27    69.00       2989.    
  7858 114-48-336      48    336.0       2957.    
     MULTIPLE LAYERS AND PROPORTIONS :    1, 0.29       2, 0.43       3, 0.28
  7859 114-56-10       56    10.00       2966.    
     MULTIPLE LAYERS AND PROPORTIONS :    1, 0.29       2, 0.43       3, 0.28
  7860 112-43-8        43    8.000       2956.    
  7861 112-48-335      48    335.0       2982.    
  7862 112-56-9        56    9.000       2988.    
  7863 112-61-52       61    52.00       2975.    
  7864 112-66-45       66    45.00       2967.    
  7865 112-71-13       71    13.00       2956.    
  7866 104-60-299      60    299.0       2981.    
  7867 104-65-292      65    292.0       2974.    
  7868 100-22-61       22    61.00       2977.    
  7869 101-61-53       61    53.00       2981.    
  7870 97-22-54        22    54.00       2975.    
  7871 97-27-10        27    10.00       2963.    
  7872 98-43-8         43    8.000       2975.    
  7873 98-48-348       48    348.0       3003.    
  7874 98-56-10        56    10.00       3007.    
  7875 98-61-52        61    52.00       2997.    
  7876 98-66-45        66    45.00       2989.    
  7877 105-43-69       43    69.00       2982.    
  7878 105-48-348      48    348.0       2993.    
  7879 105-56-10       56    10.00       3005.    
  7880 105-61-55       61    55.00       2989.    
  7881 105-66-45       66    45.00       2983.    
  7882 99-5-1           5    1.000       2994.    
  7883 106-56-10       56    10.00       2952.    
  7884 106-61-59       61    59.00       2947.    
  7885 106-66-45       66    45.00       2941.    
  7886 106-71-40       71    40.00       2928.    
  7887 95-71-40        71    40.00       2970.    
  7888 3393-25-338     25    338.0       1492.    
  7889 3312-25-338     25    338.0       1558.    
  7890 3288-25-341     25    341.0       1610.    
  7891 3282-25-341     25    341.0       1611.    
  7892 3259-25-341     25    341.0       1649.    
     MULTIPLE LAYERS AND PROPORTIONS :    2, 0.69       3, 0.31
  7893 3222-25-229     25    229.0       1675.    
  7894 3213-25-337     25    337.0       1690.    
  7895 3199-25-339     25    339.0       1687.    
     MULTIPLE LAYERS AND PROPORTIONS :    2, 0.82       3, 0.18
  7896 3175-25-339     25    339.0       1683.    
  7897 3170-25-342     25    342.0       1701.    
  7898 3200-25-336     25    336.0       1748.    
     MULTIPLE LAYERS AND PROPORTIONS :    2, 0.43       3, 0.57
  7899 3154-25-336     25    336.0       1687.    
  7900 3138-25-336     25    336.0       1690.    
  7901 3046-25-344     25    344.0       1693.    
  7902 3036-25-344     25    344.0       1702.    
  7903 3038-25-339     25    339.0       1713.    
     MULTIPLE LAYERS AND PROPORTIONS :    1, 0.19       2, 0.77       3, 0.04
  7904 2684-25-3       25    3.000       1753.    
  7905 2919-25-351     25    351.0       1795.    
  7906 2719-25-113     25    113.0       2216.    
  7907 1933-25-180     25    180.0       2246.    
     MULTIPLE LAYERS AND PROPORTIONS :    1, 0.55       2, 0.45
  7908 1387-25-60      25    60.00       2343.    
     MULTIPLE LAYERS AND PROPORTIONS :    2, 0.46       3, 0.54
  7909 1427-25-27      25    27.00       2341.    
  7910 1661-25-60      25    60.00       2359.    
  7911 1390-25-365     25    365.0       2362.    
     MULTIPLE LAYERS AND PROPORTIONS :    1, 0.42       2, 0.58
  7912 1904-25-317     25    317.0       2511.    
  7913 1379-25-91      25    91.00       2552.    
  7914 1796-25-321     25    321.0       2637.    
  7915 1753-25-321     25    321.0       2623.    
  7916 1705-25-328     25    328.0       2647.    
  7917 1064-25-125     25    125.0       2385.    
     MULTIPLE LAYERS AND PROPORTIONS :    2, 0.31       3, 0.69
  7918 831-25-335      25    335.0       2495.    
     MULTIPLE LAYERS AND PROPORTIONS :    1, 0.45       2, 0.55
  7919 1066-25-335     25    335.0       2783.    
  7920 723-25-363      25    363.0       2420.    
  7921 568-25-307      25    307.0       2578.    
     MULTIPLE LAYERS AND PROPORTIONS :    1, 0.68       2, 0.32
  7922 544-25-309      25    309.0       2569.    
  7923 780-25-329      25    329.0       2673.    
  7924 526-25-307      25    307.0       2566.    
  7925 370-25-308      25    308.0       2652.    
     MULTIPLE LAYERS AND PROPORTIONS :    1, 0.90       2, 0.10
  7926 265-25-7        25    7.000       2718.    
     MULTIPLE LAYERS AND PROPORTIONS :    2, 0.13       3, 0.87
  7927 266-25-43       25    43.00       2692.    
  7928 232-25-314      25    314.0       2758.    
     MULTIPLE LAYERS AND PROPORTIONS :    1, 0.11       2, 0.21       3, 0.68
  7929 100-25-316      25    316.0       2977.    
  7930 3205-26-8       26    8.000       1660.    
  7931 3174-26-7       26    7.000       1673.    
  7932 3163-26-13      26    13.00       1681.    
  7933 3100-26-12      26    12.00       1686.    
     MULTIPLE LAYERS AND PROPORTIONS :    2, 0.76       3, 0.24
  7934 3097-26-7       26    7.000       1674.    
  7935 3096-26-12      26    12.00       1693.    
  7936 3053-26-11      26    11.00       1688.    
  7937 3065-26-12      26    12.00       1701.    
     MULTIPLE LAYERS AND PROPORTIONS :    2, 0.27       3, 0.73
  7938 3033-26-11      26    11.00       1699.    
     MULTIPLE LAYERS AND PROPORTIONS :    2, 0.22       3, 0.78
  7939 2989-26-12      26    12.00       1709.    
  7940 3083-26-152     26    152.0       1700.    
     MULTIPLE LAYERS AND PROPORTIONS :    2, 0.60       3, 0.40
  7941 3040-26-13      26    13.00       1692.    
  7942 2997-26-123     26    123.0       2239.    
  7943 3016-26-123     26    123.0       2282.    
  7944 2953-26-14      26    14.00       1718.    
  7945 2963-26-14      26    14.00       1715.    
  7946 2968-26-13      26    13.00       1779.    
     MULTIPLE LAYERS AND PROPORTIONS :    2, 0.99       3, 0.01
  7947 2906-26-13      26    13.00       1755.    
     MULTIPLE LAYERS AND PROPORTIONS :    2, 0.77       3, 0.23
  7948 2905-26-13      26    13.00       1726.    
     MULTIPLE LAYERS AND PROPORTIONS :    1, 0.55       2, 0.45
  7949 2874-26-14      26    14.00       1767.    
  7950 2780-26-13      26    13.00       1747.    
  7951 2779-26-13      26    13.00       1763.    
     MULTIPLE LAYERS AND PROPORTIONS :    2, 0.37       3, 0.63
  7952 2787-26-14      26    14.00       1788.    
  7953 2790-26-14      26    14.00       1786.    
     MULTIPLE LAYERS AND PROPORTIONS :    2, 0.52       3, 0.48
  7954 2772-26-13      26    13.00       1750.    
  7955 2639-26-13      26    13.00       1780.    
     MULTIPLE LAYERS AND PROPORTIONS :    2, 0.39       3, 0.61
  7956 2974-26-15      26    15.00       1784.    
  7957 2937-26-14      26    14.00       1785.    
     MULTIPLE LAYERS AND PROPORTIONS :    2, 0.86       3, 0.14
  7958 2885-26-14      26    14.00       1764.    
  7959 2867-26-14      26    14.00       1706.    
  7960 2837-26-14      26    14.00       1710.    
  7961 2748-26-15      26    15.00       1763.    
  7962 2694-26-15      26    15.00       1833.    
  7963 2933-26-15      26    15.00       1711.    
  7964 2851-26-14      26    14.00       1742.    
  7965 2711-26-15      26    15.00       1803.    
  7966 2928-26-18      26    18.00       1795.    
  7967 2811-26-14      26    14.00       1815.    
  7968 2808-26-18      26    18.00       1802.    
  7969 2766-26-47      26    47.00       2059.    
  7970 2789-26-18      26    18.00       1813.    
  7971 2696-26-18      26    18.00       2033.    
  7972 2977-26-123     26    123.0       2364.    
     MULTIPLE LAYERS AND PROPORTIONS :    2, 0.89       3, 0.11
  7973 2914-26-120     26    120.0       2139.    
  7974 2930-26-123     26    123.0       2338.    
  7975 2898-26-120     26    120.0       2134.    
  7976 2841-26-120     26    120.0       2191.    
  7977 2774-26-120     26    120.0       2200.    
  7978 2762-26-26      26    26.00       2162.    
  7979 2733-26-1       26    1.000       2092.    
  7980 2742-26-26      26    26.00       2135.    
  7981 2670-26-18      26    18.00       2129.    
  7982 2660-26-120     26    120.0       2188.    
  7983 2931-26-22      26    22.00       2410.    
  7984 2595-26-12      26    12.00       1779.    
     MULTIPLE LAYERS AND PROPORTIONS :    2, 0.19       3, 0.81
  7985 2596-26-1       26    1.000       1776.    
     MULTIPLE LAYERS AND PROPORTIONS :    2, 0.12       3, 0.88
  7986 2589-26-11      26    11.00       1776.    
  7987 2588-26-1       26    1.000       1774.    
  7988 2564-26-12      26    12.00       1779.    
  7989 2529-26-12      26    12.00       1789.    
     MULTIPLE LAYERS AND PROPORTIONS :    2, 0.05       3, 0.95
  7990 2449-26-11      26    11.00       1828.    
  7991 2492-26-13      26    13.00       1813.    
     MULTIPLE LAYERS AND PROPORTIONS :    2, 0.26       3, 0.74
  7992 2452-26-12      26    12.00       1795.    
     MULTIPLE LAYERS AND PROPORTIONS :    2, 0.09       3, 0.91
  7993 2303-26-1       26    1.000       1795.    
     MULTIPLE LAYERS AND PROPORTIONS :    2, 0.07       3, 0.93
  7994 2296-26-12      26    12.00       1805.    
     MULTIPLE LAYERS AND PROPORTIONS :    2, 0.10       3, 0.90
  7995 2301-26-14      26    14.00       1821.    
     MULTIPLE LAYERS AND PROPORTIONS :    2, 0.27       3, 0.73
  7996 2300-26-11      26    11.00       1839.    
     MULTIPLE LAYERS AND PROPORTIONS :    2, 0.44       3, 0.56
  7997 2220-26-11      26    11.00       1844.    
     MULTIPLE LAYERS AND PROPORTIONS :    2, 0.13       3, 0.87
  7998 2089-26-1       26    1.000       1825.    
     MULTIPLE LAYERS AND PROPORTIONS :    2, 0.14       3, 0.86
  7999 2088-26-12      26    12.00       1831.    
     MULTIPLE LAYERS AND PROPORTIONS :    2, 0.17       3, 0.83
  8000 2448-26-11      26    11.00       1837.    
  8001 2099-26-1       26    1.000       1851.    
     MULTIPLE LAYERS AND PROPORTIONS :    2, 0.43       3, 0.57
  8002 1922-26-1       26    1.000       1870.    
     MULTIPLE LAYERS AND PROPORTIONS :    2, 0.39       3, 0.61
  8003 1983-26-11      26    11.00       1883.    
  8004 1930-26-14      26    14.00       1888.    
  8005 2649-26-27      26    27.00       2098.    
     MULTIPLE LAYERS AND PROPORTIONS :    1, 0.55       2, 0.45
  8006 2505-26-32      26    32.00       2152.    
  8007 2464-26-29      26    29.00       2151.    
  8008 2388-26-32      26    32.00       2173.    
  8009 2412-26-20      26    20.00       2232.    
     MULTIPLE LAYERS AND PROPORTIONS :    1, 0.97       2, 0.03
  8010 2289-26-29      26    29.00       2181.    
  8011 2236-26-19      26    19.00       2195.    
  8012 2183-26-29      26    29.00       2163.    
  8013 2215-26-104     26    104.0       2435.    
  8014 2162-26-102     26    102.0       2323.    
  8015 2130-26-69      26    69.00       2258.    
  8016 1990-26-67      26    67.00       2274.    
  8017 2103-26-67      26    67.00       2293.    
     MULTIPLE LAYERS AND PROPORTIONS :    1, 0.64       2, 0.36
  8018 2055-26-102     26    102.0       2292.    
  8019 1997-26-183     26    183.0       2331.    
  8020 2339-26-104     26    104.0       2473.    
  8021 2100-26-117     26    117.0       2518.    
  8022 2010-26-75      26    75.00       2379.    
  8023 1428-26-1       26    1.000       1959.    
  8024 1383-26-8       26    8.000       2004.    
  8025 1819-26-1       26    1.000       1912.    
     MULTIPLE LAYERS AND PROPORTIONS :    2, 0.69       3, 0.31
  8026 1748-26-11      26    11.00       1915.    
     MULTIPLE LAYERS AND PROPORTIONS :    2, 0.51       3, 0.49
  8027 1702-26-11      26    11.00       1892.    
     MULTIPLE LAYERS AND PROPORTIONS :    2, 0.37       3, 0.63
  8028 1710-26-1       26    1.000       1884.    
     MULTIPLE LAYERS AND PROPORTIONS :    2, 0.18       3, 0.82
  8029 1663-26-1       26    1.000       1894.    
     MULTIPLE LAYERS AND PROPORTIONS :    2, 0.25       3, 0.75
  8030 1612-26-11      26    11.00       1921.    
  8031 1407-26-11      26    11.00       1992.    
     MULTIPLE LAYERS AND PROPORTIONS :    2, 0.83       3, 0.17
  8032 1364-26-11      26    11.00       1996.    
  8033 1266-26-8       26    8.000       2015.    
     MULTIPLE LAYERS AND PROPORTIONS :    2, 0.57       3, 0.43
  8034 1336-26-11      26    11.00       2008.    
     MULTIPLE LAYERS AND PROPORTIONS :    2, 0.82       3, 0.18
  8035 1337-26-11      26    11.00       2002.    
     MULTIPLE LAYERS AND PROPORTIONS :    2, 0.78       3, 0.22
  8036 1264-26-1       26    1.000       2006.    
     MULTIPLE LAYERS AND PROPORTIONS :    2, 0.41       3, 0.59
  8037 1849-26-40      26    40.00       2254.    
     MULTIPLE LAYERS AND PROPORTIONS :    1, 0.73       2, 0.27
  8038 1832-26-40      26    40.00       2225.    
  8039 1690-26-33      26    33.00       2246.    
  8040 1691-26-1       26    1.000       2240.    
  8041 1417-26-60      26    60.00       2352.    
  8042 1386-26-34      26    34.00       2348.    
     MULTIPLE LAYERS AND PROPORTIONS :    1, 0.37       2, 0.49       3, 0.14
  8043 1329-26-35      26    35.00       2350.    
  8044 1278-26-33      26    33.00       2365.    
  8045 1879-26-69      26    69.00       2338.    
     MULTIPLE LAYERS AND PROPORTIONS :    1, 0.20       2, 0.80
  8046 1811-26-68      26    68.00       2332.    
     MULTIPLE LAYERS AND PROPORTIONS :    1, 0.33       2, 0.67
  8047 1837-26-60      26    60.00       2337.    
  8048 1907-26-68      26    68.00       2328.    
  8049 1888-26-68      26    68.00       2311.    
  8050 1779-26-67      26    67.00       2313.    
  8051 1619-26-67      26    67.00       2340.    
     MULTIPLE LAYERS AND PROPORTIONS :    1, 0.59       2, 0.41
  8052 1723-26-60      26    60.00       2306.    
  8053 1694-26-68      26    68.00       2322.    
     MULTIPLE LAYERS AND PROPORTIONS :    1, 0.79       2, 0.21
  8054 1658-26-67      26    67.00       2325.    
     MULTIPLE LAYERS AND PROPORTIONS :    1, 0.83       2, 0.17
  8055 1655-26-69      26    69.00       2339.    
     MULTIPLE LAYERS AND PROPORTIONS :    1, 0.98       2, 0.02
  8056 1614-26-69      26    69.00       2341.    
  8057 1596-26-69      26    69.00       2343.    
  8058 1630-26-69      26    69.00       2351.    
  8059 1552-26-74      26    74.00       2343.    
  8060 1467-26-76      26    76.00       2341.    
  8061 1470-26-74      26    74.00       2328.    
  8062 1455-26-81      26    81.00       2338.    
  8063 1443-26-81      26    81.00       2342.    
  8064 1465-26-74      26    74.00       2337.    
  8065 1440-26-74      26    74.00       2343.    
     MULTIPLE LAYERS AND PROPORTIONS :    1, 0.14       2, 0.86
  8066 1474-26-75      26    75.00       2350.    
  8067 1453-26-71      26    71.00       2351.    
  8068 1488-26-70      26    70.00       2350.    
  8069 1502-26-71      26    71.00       2352.    
     MULTIPLE LAYERS AND PROPORTIONS :    1, 0.40       2, 0.60
  8070 1477-26-60      26    60.00       2354.    
  8071 1458-26-153     26    153.0       2351.    
  8072 1429-26-71      26    71.00       2371.    
     MULTIPLE LAYERS AND PROPORTIONS :    1, 0.19       2, 0.81
  8073 1397-26-71      26    71.00       2361.    
     MULTIPLE LAYERS AND PROPORTIONS :    1, 0.60       2, 0.40
  8074 1416-26-76      26    76.00       2364.    
     MULTIPLE LAYERS AND PROPORTIONS :    1, 0.72       2, 0.28
  8075 1312-26-88      26    88.00       2410.    
  8076 1359-26-82      26    82.00       2387.    
     MULTIPLE LAYERS AND PROPORTIONS :    1, 0.54       2, 0.46
  8077 1333-26-82      26    82.00       2391.    
     MULTIPLE LAYERS AND PROPORTIONS :    1, 0.51       2, 0.49
  8078 1295-26-84      26    84.00       2407.    
  8079 1892-26-193     26    193.0       2511.    
     MULTIPLE LAYERS AND PROPORTIONS :    1, 0.30       2, 0.70
  8080 1940-26-109     26    109.0       2485.    
     MULTIPLE LAYERS AND PROPORTIONS :    1, 0.24       2, 0.76
  8081 1659-26-71      26    71.00       2364.    
     MULTIPLE LAYERS AND PROPORTIONS :    1, 0.55       2, 0.45
  8082 1671-26-60      26    60.00       2365.    
     MULTIPLE LAYERS AND PROPORTIONS :    1, 0.72       2, 0.28
  8083 1627-26-70      26    70.00       2374.    
  8084 1677-26-83      26    83.00       2490.    
  8085 1602-26-83      26    83.00       2397.    
  8086 1604-26-83      26    83.00       2484.    
  8087 1669-26-109     26    109.0       2529.    
  8088 1622-26-109     26    109.0       2528.    
  8089 1553-26-88      26    88.00       2529.    
  8090 1563-26-88      26    88.00       2526.    
  8091 1586-26-84      26    84.00       2483.    
  8092 1507-26-75      26    75.00       2376.    
  8093 1495-26-60      26    60.00       2377.    
     MULTIPLE LAYERS AND PROPORTIONS :    1, 0.18       2, 0.82
  8094 1484-26-75      26    75.00       2370.    
  8095 1489-26-88      26    88.00       2488.    
  8096 1464-26-88      26    88.00       2529.    
  8097 1414-26-95      26    95.00       2547.    
  8098 1395-26-88      26    88.00       2457.    
  8099 1377-26-83      26    83.00       2461.    
  8100 1375-26-88      26    88.00       2509.    
  8101 1396-26-70      26    70.00       2427.    
  8102 1415-26-84      26    84.00       2403.    
  8103 1300-26-213     26    213.0       2560.    
  8104 1276-26-95      26    95.00       2557.    
  8105 1354-26-95      26    95.00       2713.    
  8106 1358-26-95      26    95.00       2714.    
  8107 846-26-13       26    13.00       2358.    
  8108 833-26-13       26    13.00       2354.    
     MULTIPLE LAYERS AND PROPORTIONS :    2, 0.17       3, 0.83
  8109 827-26-13       26    13.00       2353.    
     MULTIPLE LAYERS AND PROPORTIONS :    2, 0.60       3, 0.40
  8110 845-26-13       26    13.00       2306.    
  8111 1105-26-118     26    118.0       2038.    
  8112 1120-26-13      26    13.00       2034.    
  8113 1088-26-91      26    91.00       2090.    
  8114 809-26-13       26    13.00       2198.    
  8115 1235-26-36      26    36.00       2364.    
     MULTIPLE LAYERS AND PROPORTIONS :    2, 0.35       3, 0.65
  8116 1239-26-33      26    33.00       2364.    
     MULTIPLE LAYERS AND PROPORTIONS :    1, 0.16       2, 0.58       3, 0.26
  8117 1227-26-33      26    33.00       2367.    
     MULTIPLE LAYERS AND PROPORTIONS :    2, 0.25       3, 0.75
  8118 1219-26-36      26    36.00       2358.    
     MULTIPLE LAYERS AND PROPORTIONS :    1, 0.29       2, 0.09       3, 0.62
  8119 1168-26-35      26    35.00       2377.    
  8120 1140-26-35      26    35.00       2383.    
     MULTIPLE LAYERS AND PROPORTIONS :    1, 0.46       2, 0.52       3, 0.02
  8121 1160-26-36      26    36.00       2371.    
     MULTIPLE LAYERS AND PROPORTIONS :    1, 0.79       2, 0.21
  8122 1121-26-36      26    36.00       2378.    
     MULTIPLE LAYERS AND PROPORTIONS :    1, 0.34       2, 0.21       3, 0.45
  8123 1080-26-36      26    36.00       2443.    
  8124 1048-26-36      26    36.00       2445.    
     MULTIPLE LAYERS AND PROPORTIONS :    1, 0.20       2, 0.12       3, 0.68
  8125 1075-26-36      26    36.00       2428.    
     MULTIPLE LAYERS AND PROPORTIONS :    1, 0.35       2, 0.04       3, 0.61
  8126 1016-26-36      26    36.00       2387.    
  8127 1011-26-36      26    36.00       2378.    
     MULTIPLE LAYERS AND PROPORTIONS :    1, 0.14       2, 0.14       3, 0.72
  8128 1083-26-35      26    35.00       2391.    
  8129 997-26-244      26    244.0       2404.    
  8130 910-26-166      26    166.0       2463.    
     MULTIPLE LAYERS AND PROPORTIONS :    2, 0.05       3, 0.95
  8131 1212-26-64      26    64.00       2374.    
  8132 1131-26-349     26    349.0       2441.    
  8133 1188-26-60      26    60.00       2481.    
  8134 1076-26-341     26    341.0       2520.    
     MULTIPLE LAYERS AND PROPORTIONS :    1, 0.30       2, 0.70
  8135 1000-26-18      26    18.00       2522.    
  8136 1095-26-18      26    18.00       2462.    
  8137 1035-26-61      26    61.00       2488.    
  8138 1037-26-60      26    60.00       2477.    
  8139 878-26-60       26    60.00       2496.    
     MULTIPLE LAYERS AND PROPORTIONS :    1, 0.34       2, 0.66
  8140 1250-26-84      26    84.00       2437.    
     MULTIPLE LAYERS AND PROPORTIONS :    1, 0.42       2, 0.58
  8141 1251-26-84      26    84.00       2433.    
     MULTIPLE LAYERS AND PROPORTIONS :    1, 0.24       2, 0.76
  8142 1195-26-81      26    81.00       2500.    
     MULTIPLE LAYERS AND PROPORTIONS :    1, 0.47       2, 0.53
  8143 1110-26-62      26    62.00       2530.    
  8144 1044-26-82      26    82.00       2565.    
  8145 1017-26-62      26    62.00       2545.    
  8146 973-26-95       26    95.00       2601.    
  8147 870-26-95       26    95.00       2615.    
  8148 3417-26-95      26    95.00       2627.    
     MULTIPLE LAYERS AND PROPORTIONS :    2, 0.14       3, 0.86
  8149 1246-26-305     26    305.0       2722.    
  8150 1593-26-18      26    18.00       2766.    
  8151 757-26-141      26    141.0       2333.    
     MULTIPLE LAYERS AND PROPORTIONS :    2, 0.16       3, 0.84
  8152 758-26-1        26    1.000       2395.    
     MULTIPLE LAYERS AND PROPORTIONS :    2, 0.23       3, 0.77
  8153 722-26-64       26    64.00       2443.    
  8154 737-26-1        26    1.000       2415.    
  8155 656-26-1        26    1.000       2498.    
  8156 602-26-1        26    1.000       2502.    
  8157 598-26-1        26    1.000       2492.    
  8158 720-26-1        26    1.000       2222.    
  8159 674-26-43       26    43.00       2549.    
     MULTIPLE LAYERS AND PROPORTIONS :    1, 0.84       2, 0.16
  8160 673-26-49       26    49.00       2545.    
     MULTIPLE LAYERS AND PROPORTIONS :    1, 0.32       2, 0.68
  8161 810-26-43       26    43.00       2512.    
  8162 785-26-65       26    65.00       2582.    
  8163 681-26-96       26    96.00       2620.    
  8164 608-26-64       26    64.00       2631.    
     MULTIPLE LAYERS AND PROPORTIONS :    2, 0.74       3, 0.26
  8165 559-26-60       26    60.00       2643.    
  8166 731-26-98       26    98.00       2678.    
  8167 683-26-91       26    91.00       2679.    
  8168 496-26-56       26    56.00       2578.    
  8169 408-26-46       26    46.00       2653.    
  8170 391-26-72       26    72.00       2685.    
     MULTIPLE LAYERS AND PROPORTIONS :    2, 0.22       3, 0.78
  8171 451-26-85       26    85.00       2697.    
  8172 477-26-63       26    63.00       2661.    
  8173 302-26-47       26    47.00       2680.    
  8174 295-26-47       26    47.00       2724.    
  8175 281-26-47       26    47.00       2687.    
  8176 270-26-41       26    41.00       2694.    
  8177 278-26-11       26    11.00       2716.    
     MULTIPLE LAYERS AND PROPORTIONS :    1, 0.77       2, 0.23
  8178 250-26-11       26    11.00       2727.    
     MULTIPLE LAYERS AND PROPORTIONS :    2, 0.02       3, 0.98
  8179 3333-27-99      27    99.00       1707.    
  8180 3176-27-347     27    347.0       1652.    
  8181 3055-27-126     27    126.0       2453.    
  8182 2747-27-253     27    253.0       2052.    
  8183 995-27-236      27    236.0       2110.    
     MULTIPLE LAYERS AND PROPORTIONS :    2, 0.06       3, 0.94
  8184 778-27-348      27    348.0       2610.    
  8185 718-27-151      27    151.0       2631.    
     MULTIPLE LAYERS AND PROPORTIONS :    2, 0.38       3, 0.62
  8186 3239-30-335     30    335.0       2915.    
  8187 3181-30-185     30    185.0       2850.    
     MULTIPLE LAYERS AND PROPORTIONS :    2, 0.28       3, 0.72
  8188 3211-30-274     30    274.0       2885.    
  8189 3189-30-181     30    181.0       2873.    
     MULTIPLE LAYERS AND PROPORTIONS :    2, 0.35       3, 0.65
  8190 3198-30-274     30    274.0       2910.    
  8191 3192-30-274     30    274.0       2905.    
  8192 3124-30-213     30    213.0       2790.    
  8193 2832-30-108     30    108.0       2015.    
     MULTIPLE LAYERS AND PROPORTIONS :    1, 0.79       2, 0.21
  8194 2673-30-244     30    244.0       2073.    
     MULTIPLE LAYERS AND PROPORTIONS :    1, 0.49       2, 0.51
  8195 2876-30-99      30    99.00       2185.    
     MULTIPLE LAYERS AND PROPORTIONS :    2, 0.26       3, 0.74
  8196 2774-30-91      30    91.00       2193.    
  8197 2733-30-27      30    27.00       2093.    
  8198 2603-30-29      30    29.00       2118.    
     MULTIPLE LAYERS AND PROPORTIONS :    1, 0.75       2, 0.25
  8199 2652-30-27      30    27.00       2115.    
     MULTIPLE LAYERS AND PROPORTIONS :    1, 0.25       2, 0.75
  8200 2576-30-30      30    30.00       2130.    
  8201 2542-30-30      30    30.00       2154.    
     MULTIPLE LAYERS AND PROPORTIONS :    1, 0.57       2, 0.43
  8202 2505-30-29      30    29.00       2150.    
  8203 2355-30-1       30    1.000       2157.    
     MULTIPLE LAYERS AND PROPORTIONS :    2, 0.78       3, 0.22
  8204 2464-30-29      30    29.00       2154.    
  8205 2357-30-30      30    30.00       2173.    
  8206 2373-30-30      30    30.00       2161.    
     MULTIPLE LAYERS AND PROPORTIONS :    1, 0.25       2, 0.60       3, 0.15
  8207 2446-30-30      30    30.00       2180.    
     MULTIPLE LAYERS AND PROPORTIONS :    1, 0.60       2, 0.40
  8208 2445-30-121     30    121.0       2188.    
  8209 2237-30-34      30    34.00       2202.    
  8210 2137-30-35      30    35.00       2201.    
     MULTIPLE LAYERS AND PROPORTIONS :    2, 0.99       3, 0.01
  8211 2109-30-30      30    30.00       2196.    
  8212 2038-30-1       30    1.000       2202.    
  8213 2059-30-35      30    35.00       2212.    
     MULTIPLE LAYERS AND PROPORTIONS :    1, 0.99       2, 0.01
  8214 2227-30-273     30    273.0       2279.    
     MULTIPLE LAYERS AND PROPORTIONS :    1, 0.53       2, 0.28       3, 0.19
  8215 2056-30-18      30    18.00       2281.    
  8216 2019-30-111     30    111.0       2276.    
     MULTIPLE LAYERS AND PROPORTIONS :    1, 0.69       2, 0.31
  8217 1998-30-244     30    244.0       2298.    
  8218 2086-30-14      30    14.00       2348.    
  8219 2069-30-244     30    244.0       2359.    
     MULTIPLE LAYERS AND PROPORTIONS :    1, 0.57       2, 0.43
  8220 2081-30-105     30    105.0       2369.    
  8221 2246-30-335     30    335.0       2440.    
  8222 2001-30-305     30    305.0       2546.    
  8223 1617-30-121     30    121.0       2310.    
  8224 1391-30-43      30    43.00       2344.    
     MULTIPLE LAYERS AND PROPORTIONS :    1, 0.42       2, 0.45       3, 0.13
  8225 1427-30-11      30    11.00       2340.    
  8226 1400-30-42      30    42.00       2345.    
  8227 1619-30-57      30    57.00       2328.    
     MULTIPLE LAYERS AND PROPORTIONS :    1, 0.59       2, 0.41
  8228 1693-30-51      30    51.00       2339.    
  8229 1500-30-56      30    56.00       2304.    
     MULTIPLE LAYERS AND PROPORTIONS :    1, 0.32       2, 0.68
  8230 1312-30-349     30    349.0       2406.    
  8231 1874-30-1       30    1.000       2575.    
  8232 1857-30-157     30    157.0       2523.    
  8233 1843-30-213     30    213.0       2506.    
     MULTIPLE LAYERS AND PROPORTIONS :    1, 0.35       2, 0.65
  8234 1846-30-43      30    43.00       2486.    
     MULTIPLE LAYERS AND PROPORTIONS :    1, 0.30       2, 0.70
  8235 1676-30-79      30    79.00       2516.    
  8236 1574-30-246     30    246.0       2530.    
  8237 1368-30-60      30    60.00       2431.    
     MULTIPLE LAYERS AND PROPORTIONS :    1, 0.15       2, 0.85
  8238 1366-30-43      30    43.00       2461.    
  8239 1348-30-43      30    43.00       2520.    
  8240 1320-30-335     30    335.0       2645.    
  8241 1276-30-121     30    121.0       2559.    
  8242 1751-30-305     30    305.0       2638.    
  8243 1752-30-305     30    305.0       2582.    
  8244 1749-30-305     30    305.0       2565.    
  8245 1754-30-130     30    130.0       2612.    
  8246 812-30-6        30    6.000       2350.    
     MULTIPLE LAYERS AND PROPORTIONS :    2, 0.08       3, 0.92
  8247 1235-30-43      30    43.00       2363.    
     MULTIPLE LAYERS AND PROPORTIONS :    2, 0.35       3, 0.65
  8248 1197-30-43      30    43.00       2463.    
  8249 1187-30-182     30    182.0       2476.    
     MULTIPLE LAYERS AND PROPORTIONS :    1, 0.30       2, 0.66       3, 0.04
  8250 1194-30-1       30    1.000       2495.    
  8251 529-30-351      30    351.0       2510.    
     MULTIPLE LAYERS AND PROPORTIONS :    2, 0.04       3, 0.96
  8252 686-30-127      30    127.0       2532.    
     MULTIPLE LAYERS AND PROPORTIONS :    1, 0.21       2, 0.32       3, 0.47
  8253 488-30-44       30    44.00       2517.    
  8254 485-30-351      30    351.0       2554.    
     MULTIPLE LAYERS AND PROPORTIONS :    2, 0.05       3, 0.95
  8255 476-30-60       30    60.00       2570.    
  8256 408-30-349      30    349.0       2630.    
  8257 402-30-213      30    213.0       2615.    
  8258 366-30-42       30    42.00       2663.    
  8259 301-30-342      30    342.0       2660.    
  8260 270-30-342      30    342.0       2667.    
  8261 3376-31-2       31    2.000       1547.    
  8262 3351-31-101     31    101.0       1629.    
  8263 3272-31-104     31    104.0       2957.    
  8264 3145-31-193     31    193.0       1750.    
     MULTIPLE LAYERS AND PROPORTIONS :    1, 0.13       2, 0.87
  8265 3161-31-244     31    244.0       1725.    
  8266 3038-31-1       31    1.000       1696.    
     MULTIPLE LAYERS AND PROPORTIONS :    1, 0.19       2, 0.77       3, 0.04
  8267 3243-31-1       31    1.000       2895.    
  8268 3256-31-104     31    104.0       2929.    
     MULTIPLE LAYERS AND PROPORTIONS :    2, 0.47       3, 0.53
  8269 3208-31-273     31    273.0       2890.    
     MULTIPLE LAYERS AND PROPORTIONS :    2, 0.57       3, 0.43
  8270 3153-31-348     31    348.0       2821.    
     MULTIPLE LAYERS AND PROPORTIONS :    2, 0.40       3, 0.60
  8271 3164-31-283     31    283.0       2845.    
     MULTIPLE LAYERS AND PROPORTIONS :    2, 0.39       3, 0.61
  8272 3093-31-104     31    104.0       2691.    
  8273 2787-31-57      31    57.00       1715.    
  8274 2734-31-1       31    1.000       1719.    
     MULTIPLE LAYERS AND PROPORTIONS :    2, 0.06       3, 0.94
  8275 2823-31-196     31    196.0       1708.    
  8276 2927-31-29      31    29.00       1953.    
     MULTIPLE LAYERS AND PROPORTIONS :    1, 0.20       2, 0.63       3, 0.17
  8277 2743-31-220     31    220.0       2083.    
  8278 2756-31-252     31    252.0       2034.    
     MULTIPLE LAYERS AND PROPORTIONS :    1, 0.13       2, 0.87
  8279 2699-31-1       31    1.000       2064.    
  8280 2687-31-266     31    266.0       2081.    
     MULTIPLE LAYERS AND PROPORTIONS :    1, 0.55       2, 0.45
  8281 2615-31-1       31    1.000       1813.    
  8282 2650-31-60      31    60.00       2101.    
  8283 2558-31-121     31    121.0       2120.    
     MULTIPLE LAYERS AND PROPORTIONS :    1, 0.23       2, 0.77
  8284 2475-31-120     31    120.0       2142.    
     MULTIPLE LAYERS AND PROPORTIONS :    1, 0.31       2, 0.69
  8285 2460-31-120     31    120.0       2159.    
     MULTIPLE LAYERS AND PROPORTIONS :    1, 0.38       2, 0.62
  8286 2427-31-120     31    120.0       2172.    
     MULTIPLE LAYERS AND PROPORTIONS :    1, 0.33       2, 0.67
  8287 2326-31-121     31    121.0       2234.    
     MULTIPLE LAYERS AND PROPORTIONS :    1, 0.30       2, 0.58       3, 0.12
  8288 2212-31-121     31    121.0       2209.    
     MULTIPLE LAYERS AND PROPORTIONS :    1, 0.13       2, 0.87
  8289 1991-31-36      31    36.00       2203.    
     MULTIPLE LAYERS AND PROPORTIONS :    1, 0.40       2, 0.60
  8290 1958-31-36      31    36.00       2205.    
     MULTIPLE LAYERS AND PROPORTIONS :    1, 0.30       2, 0.70
  8291 2057-31-121     31    121.0       2211.    
  8292 1951-31-36      31    36.00       2239.    
     MULTIPLE LAYERS AND PROPORTIONS :    1, 0.81       2, 0.19
  8293 2014-31-121     31    121.0       2308.    
  8294 1974-31-120     31    120.0       2295.    
  8295 2102-31-119     31    119.0       2325.    
     MULTIPLE LAYERS AND PROPORTIONS :    1, 0.19       2, 0.81
  8296 2054-31-91      31    91.00       2321.    
     MULTIPLE LAYERS AND PROPORTIONS :    1, 0.31       2, 0.69
  8297 2339-31-78      31    78.00       2474.    
  8298 2330-31-196     31    196.0       2520.    
  8299 2100-31-78      31    78.00       2521.    
  8300 2043-31-211     31    211.0       2485.    
     MULTIPLE LAYERS AND PROPORTIONS :    1, 0.59       2, 0.41
  8301 1849-31-1       31    1.000       2249.    
     MULTIPLE LAYERS AND PROPORTIONS :    1, 0.73       2, 0.27
  8302 1471-31-113     31    113.0       2330.    
     MULTIPLE LAYERS AND PROPORTIONS :    1, 0.57       2, 0.43
  8303 1461-31-40      31    40.00       2308.    
     MULTIPLE LAYERS AND PROPORTIONS :    2, 0.50       3, 0.50
  8304 1321-31-40      31    40.00       2335.    
  8305 1306-31-113     31    113.0       2337.    
     MULTIPLE LAYERS AND PROPORTIONS :    1, 0.31       2, 0.69
  8306 1307-31-113     31    113.0       2342.    
  8307 1305-31-121     31    121.0       2345.    
  8308 1886-31-119     31    119.0       2327.    
  8309 1879-31-119     31    119.0       2322.    
     MULTIPLE LAYERS AND PROPORTIONS :    1, 0.20       2, 0.80
  8310 1779-31-119     31    119.0       2295.    
  8311 1724-31-118     31    118.0       2294.    
  8312 1694-31-119     31    119.0       2307.    
     MULTIPLE LAYERS AND PROPORTIONS :    1, 0.79       2, 0.21
  8313 1695-31-120     31    120.0       2314.    
  8314 1596-31-119     31    119.0       2320.    
  8315 1683-31-68      31    68.00       2347.    
     MULTIPLE LAYERS AND PROPORTIONS :    1, 0.71       2, 0.29
  8316 1552-31-117     31    117.0       2327.    
  8317 1533-31-118     31    118.0       2316.    
  8318 1813-31-117     31    117.0       2308.    
  8319 1538-31-117     31    117.0       2310.    
     MULTIPLE LAYERS AND PROPORTIONS :    1, 0.14       2, 0.86
  8320 1470-31-117     31    117.0       2313.    
  8321 1453-31-117     31    117.0       2336.    
  8322 1502-31-120     31    120.0       2339.    
     MULTIPLE LAYERS AND PROPORTIONS :    1, 0.40       2, 0.60
  8323 1416-31-62      31    62.00       2338.    
     MULTIPLE LAYERS AND PROPORTIONS :    1, 0.72       2, 0.28
  8324 1784-31-148     31    148.0       2366.    
     MULTIPLE LAYERS AND PROPORTIONS :    1, 0.20       2, 0.80
  8325 1659-31-114     31    114.0       2355.    
     MULTIPLE LAYERS AND PROPORTIONS :    1, 0.55       2, 0.45
  8326 1671-31-114     31    114.0       2350.    
     MULTIPLE LAYERS AND PROPORTIONS :    1, 0.72       2, 0.28
  8327 1602-31-114     31    114.0       2371.    
  8328 1507-31-114     31    114.0       2358.    
  8329 1514-31-114     31    114.0       2349.    
     MULTIPLE LAYERS AND PROPORTIONS :    1, 0.14       2, 0.86
  8330 1495-31-69      31    69.00       2358.    
     MULTIPLE LAYERS AND PROPORTIONS :    1, 0.18       2, 0.82
  8331 1484-31-114     31    114.0       2348.    
  8332 1483-31-114     31    114.0       2436.    
  8333 1239-31-113     31    113.0       2352.    
     MULTIPLE LAYERS AND PROPORTIONS :    1, 0.16       2, 0.58       3, 0.26
  8334 1234-31-113     31    113.0       2349.    
     MULTIPLE LAYERS AND PROPORTIONS :    1, 0.14       2, 0.34       3, 0.52
  8335 1099-31-117     31    117.0       2361.    
     MULTIPLE LAYERS AND PROPORTIONS :    1, 0.26       2, 0.24       3, 0.50
  8336 853-31-118      31    118.0       2482.    
  8337 720-31-1        31    1.000       2221.    
  8338 729-31-118      31    118.0       2508.    
     MULTIPLE LAYERS AND PROPORTIONS :    1, 0.47       2, 0.53
  8339 679-31-118      31    118.0       2516.    
     MULTIPLE LAYERS AND PROPORTIONS :    1, 0.95       2, 0.05
  8340 810-31-118      31    118.0       2479.    
  8341 299-31-59       31    59.00       2671.    
     MULTIPLE LAYERS AND PROPORTIONS :    2, 0.14       3, 0.86
  8342 3281-32-351     32    351.0       1586.    
  8343 3347-32-97      32    97.00       2965.    
  8344 3051-32-152     32    152.0       1691.    
     MULTIPLE LAYERS AND PROPORTIONS :    2, 0.43       3, 0.57
  8345 3004-32-94      32    94.00       2011.    
     MULTIPLE LAYERS AND PROPORTIONS :    2, 0.30       3, 0.70
  8346 2997-32-94      32    94.00       2234.    
  8347 3016-32-94      32    94.00       2280.    
  8348 3055-32-94      32    94.00       2452.    
  8349 2880-32-95      32    95.00       2083.    
  8350 2883-32-196     32    196.0       2011.    
  8351 2977-32-96      32    96.00       2361.    
     MULTIPLE LAYERS AND PROPORTIONS :    2, 0.89       3, 0.11
  8352 2914-32-96      32    96.00       2130.    
  8353 2930-32-96      32    96.00       2337.    
  8354 2869-32-96      32    96.00       2320.    
  8355 2898-32-96      32    96.00       2125.    
  8356 2841-32-96      32    96.00       2182.    
  8357 2742-32-95      32    95.00       2130.    
  8358 2956-32-95      32    95.00       2527.    
  8359 2441-32-216     32    216.0       1804.    
  8360 2477-32-137     32    137.0       1798.    
  8361 2334-32-335     32    335.0       2382.    
  8362 2314-32-342     32    342.0       2365.    
  8363 2331-32-29      32    29.00       2480.    
  8364 2128-32-154     32    154.0       2478.    
  8365 2092-32-154     32    154.0       2468.    
  8366 2085-32-154     32    154.0       2448.    
  8367 1278-32-50      32    50.00       2361.    
  8368 1791-32-119     32    119.0       2331.    
     MULTIPLE LAYERS AND PROPORTIONS :    1, 0.28       2, 0.72
  8369 1131-32-62      32    62.00       2436.    
  8370 1035-32-71      32    71.00       2477.    
  8371 2799-35-122     35    122.0       1998.    
     MULTIPLE LAYERS AND PROPORTIONS :    2, 0.81       3, 0.19
  8372 861-35-329      35    329.0       2230.    
  8373 3038-36-52      36    52.00       1680.    
     MULTIPLE LAYERS AND PROPORTIONS :    1, 0.19       2, 0.77       3, 0.04
  8374 2937-36-86      36    86.00       1764.    
     MULTIPLE LAYERS AND PROPORTIONS :    2, 0.86       3, 0.14
  8375 1428-36-91      36    91.00       1955.    
  8376 1106-36-164     36    164.0       2031.    
  8377 727-36-333      36    333.0       2585.    
     MULTIPLE LAYERS AND PROPORTIONS :    2, 0.85       3, 0.15
  8378 492-36-108      36    108.0       2478.    
  8379 380-36-78       36    78.00       2594.    
     MULTIPLE LAYERS AND PROPORTIONS :    2, 0.12       3, 0.88
  8380 3318-37-364     37    364.0       1613.    
     MULTIPLE LAYERS AND PROPORTIONS :    2, 0.14       3, 0.86
  8381 2476-37-182     37    182.0       2165.    
  8382 2437-37-1       37    1.000       2175.    
  8383 1436-37-201     37    201.0       2321.    
  8384 974-37-342      37    342.0       2328.    
  8385 981-37-84       37    84.00       2562.    
  8386 814-37-58       37    58.00       2570.    
  8387 697-37-41       37    41.00       2615.    
     MULTIPLE LAYERS AND PROPORTIONS :    2, 0.47       3, 0.53
  8388 659-37-16       37    16.00       2662.    
     MULTIPLE LAYERS AND PROPORTIONS :    1, 0.38       2, 0.53       3, 0.09

                                                     HEAD CHANGE
                                                      REFERENCE
        OBSERVATION                   ROW     COL    OBSERVATION
  OBS#     NAME       LAY  ROW  COL  OFFSET  OFFSET   (IF > 0)
     1  3522-15-337     3    4   65  -0.350   0.330        0
     2  3489-20-74      3    6   64  -0.200  -0.130        0
     3  3485-19-34      3    6   67   0.290   0.050        0
     4  3465-20-300     3    8   66   0.210  -0.090        0
     5  3415-15-154     3   12   67  -0.010   0.340        0
     6  3314-43-7       3   19   66  -0.310   0.240        0
     7  3241-5-82       3   23   68  -0.290  -0.200        0
     8  3384-7-41       2    4   12  -0.470  -0.420        0
     9  3384-12-10      2    4   12  -0.470  -0.420        0
    10  3384-16-340     2    4   12  -0.470  -0.420        0
    11  3384-21-335     2    4   12  -0.470  -0.420        0
    12  3384-27-13      2    4   12  -0.470  -0.420        0
    13  3384-32-5       2    4   12  -0.470  -0.420        0
    14  3384-36-349     2    4   12  -0.470  -0.420        0
    15  3400-55-321     3    1   19   0.030  -0.350        0
    16  3400-60-312     3    1   19   0.030  -0.350        0
    17  3400-65-363     3    1   19   0.030  -0.350        0
    18  3400-71-349     3    1   19   0.030  -0.350        0
    19  3401-55-321     2    1   19   0.030  -0.350        0
    20  3401-60-312     2    1   19   0.030  -0.350        0
    21  3401-65-363     2    1   19   0.030  -0.350        0
    22  3401-71-349     2    1   19   0.030  -0.350        0
    23  3397-11-313     2    2   17  -0.330   0.290        0
    24  3361-21-339     2    5   12   0.250  -0.430        0
    25  3361-32-5       2    5   12   0.250  -0.430        0
    26  3346-16-340     2    6   12  -0.010  -0.460        0
    27  3346-21-339     2    6   12  -0.010  -0.460        0
    28  3346-32-5       2    6   12  -0.010  -0.460        0
    29  3346-37-349     2    6   12  -0.010  -0.460        0
    30  3346-49-54      2    6   12  -0.010  -0.460        0
    31  3346-60-319     2    6   12  -0.010  -0.460        0
    32  3346-65-298     2    6   12  -0.010  -0.460        0
    33  3346-71-13      2    6   12  -0.010  -0.460        0
    34  3376-6-41       2    7   14  -0.080  -0.350        0
    35  3376-12-46      2    7   14  -0.080  -0.350        0
    36  3376-16-362     2    7   14  -0.080  -0.350        0
    37  3376-21-336     2    7   14  -0.080  -0.350        0
    38  3376-27-12      2    7   14  -0.080  -0.350        0
    39  3376-38-1       2    7   14  -0.080  -0.350        0
    40  3327-56-26      2    8   14  -0.210   0.480        0
    41  3327-66-18      2    8   14  -0.210   0.480        0
    42  3306-1-32       2    9   14   0.280  -0.140        0
    43  3299-38-41      2   10   14  -0.490   0.000        0
    44  3311-15-337     2    9   65  -0.220   0.430        0
    45  3313-32-7       2    9   16  -0.330  -0.390        0
    46  3313-38-1       2    9   16  -0.330  -0.390        0
    47  3313-56-26      2    9   16  -0.330  -0.390        0
    48  3313-66-18      2    9   16  -0.330  -0.390        0
    49  3303-56-26      2    9   15   0.320  -0.070        0
    50  3303-66-18      2    9   15   0.320  -0.070        0
    51  3302-12-32      2    9   16   0.400  -0.360        0
    52  3302-56-26      2    9   16   0.400  -0.360        0
    53  3302-66-18      2    9   16   0.400  -0.360        0
    54  3320-2-305      1    8   13   0.360   0.310        0
    55  3324-26-339     2    8   13   0.090  -0.470        0
    56  3312-16-335     2    9   13  -0.340  -0.460        0
    57  3312-21-335     2    9   13  -0.340  -0.460        0
    58  3312-32-1       2    9   13  -0.340  -0.460        0
    59  3312-36-51      2    9   13  -0.340  -0.460        0
    60  3294-1-60       2   10   13   0.230   0.470        0
    61  3291-16-362     2   10   13   0.230   0.500        0
    62  3288-12-32      2   11   12  -0.080   0.390        0
    63  3288-21-335     2   11   12  -0.080   0.390        0
    64  3288-32-7       2   11   12  -0.080   0.390        0
    65  3282-21-336     2   11   14   0.250  -0.480        0
    66  3282-32-7       2   11   14   0.250  -0.480        0
    67  3282-38-10      2   11   14   0.250  -0.480        0
    68  3285-5-179      2   11   16   0.160  -0.430        0
    69  3285-11-25      2   11   16   0.160  -0.430        0
    70  3285-16-341     2   11   16   0.160  -0.430        0
    71  3285-21-336     2   11   16   0.160  -0.430        0
    72  3279-12-39      2   11   16   0.430  -0.460        0
    73  3279-16-362     2   11   16   0.430  -0.460        0
    74  3279-21-341     2   11   16   0.430  -0.460        0
    75  3279-27-28      2   11   16   0.430  -0.460        0
    76  3281-21-336     2   11   16   0.350  -0.460        0
    77  3281-37-350     2   11   16   0.350  -0.460        0
    78  3268-21-274     2   13   15   0.150   0.500        0
    79  3268-38-6       2   13   15   0.150   0.500        0
    80  3259-16-348    -3   14   15   0.410  -0.150        0
    81  3259-32-7      -2   14   15   0.410  -0.150        0
    82  3259-36-350    -2   14   15   0.410  -0.150        0
    83  3237-1-365      1   15   15   0.330   0.390        0
    84  3237-3-355      1   15   15   0.330   0.390        0
    85  3237-12-59      1   15   15   0.330   0.390        0
    86  3234-6-284      2   15   15   0.370   0.360        0
    87  3234-12-32      2   15   15   0.370   0.360        0
    88  3234-16-348     2   15   15   0.370   0.360        0
    89  3231-21-341    -2   15   15   0.290   0.330        0
    90  3231-27-12     -2   15   15   0.290   0.330        0
    91  3231-38-3      -2   15   15   0.290   0.330        0
    92  3382-48-363     2    4   20  -0.370  -0.390        0
    93  3383-48-363     2    4   20  -0.370  -0.390        0
    94  3363-56-23      2    5   20   0.090   0.100        0
    95  3363-66-18      2    5   20   0.090   0.100        0
    96  3364-11-342    -2    5   20  -0.030  -0.450        0
    97  3364-16-362    -2    5   20  -0.030  -0.450        0
    98  3364-21-341    -2    5   20  -0.030  -0.450        0
    99  3364-27-28      2    5   20  -0.030  -0.450        0
   100  3364-32-4       2    5   20  -0.030  -0.450        0
   101  3364-36-349     2    5   20  -0.030  -0.450        0
   102  3364-43-19      2    5   20  -0.030  -0.450        0
   103  3364-49-54      2    5   20  -0.030  -0.450        0
   104  3364-56-25      2    5   20  -0.030  -0.450        0
   105  3364-60-319     2    5   20  -0.030  -0.450        0
   106  3364-65-298    -2    5   20  -0.030  -0.450        0
   107  3364-71-13     -2    5   20  -0.030  -0.450        0
   108  3364-71-365    -2    5   20  -0.030  -0.450        0
   109  3370-56-25      2    5   19  -0.490   0.090        0
   110  3370-61-72      2    5   19  -0.490   0.090        0
   111  3370-66-18      2    5   19  -0.490   0.090        0
   112  3353-21-335     2    6   20  -0.450  -0.460        0
   113  3353-27-12      2    6   20  -0.450  -0.460        0
   114  3353-56-25      2    6   20  -0.450  -0.460        0
   115  3353-66-18      2    6   20  -0.450  -0.460        0
   116  3351-56-25      2    6   20  -0.490  -0.230        0
   117  3351-61-72      2    6   20  -0.490  -0.230        0
   118  3351-66-18      2    6   20  -0.490  -0.230        0
   119  3310-56-23      3    9   23  -0.230  -0.260        0
   120  3307-56-23      2    9   23   0.040   0.160        0
   121  3307-61-73      2    9   23   0.040   0.160        0
   122  3307-66-20      2    9   23   0.040   0.160        0
   123  3292-56-25     -2   10   19   0.370  -0.310        0
   124  3292-61-73     -2   10   19   0.370  -0.310        0
   125  3292-66-19     -2   10   19   0.370  -0.310        0
   126  3278-11-296     2   11   19   0.480  -0.220        0
   127  3278-16-343     2   11   19   0.480  -0.220        0
   128  3278-21-340     2   11   19   0.480  -0.220        0
   129  3278-27-12      2   11   19   0.480  -0.220        0
   130  3278-32-4       2   11   19   0.480  -0.220        0
   131  3278-36-350     2   11   19   0.480  -0.220        0
   132  3278-43-19      2   11   19   0.480  -0.220        0
   133  3278-49-54      2   11   19   0.480  -0.220        0
   134  3278-56-25      2   11   19   0.480  -0.220        0
   135  3278-60-319     2   11   19   0.480  -0.220        0
   136  3278-65-301     2   11   19   0.480  -0.220        0
   137  3278-71-13      2   11   19   0.480  -0.220        0
   138  3278-71-365     2   11   19   0.480  -0.220        0
   139  3290-56-25     -2   10   20   0.480  -0.370        0
   140  3290-61-73     -2   10   20   0.480  -0.370        0
   141  3290-66-19     -2   10   20   0.480  -0.370        0
   142  3250-12-32      1   15   22  -0.300   0.010        0
   143  3250-16-363     1   15   22  -0.300   0.010        0
   144  3250-21-335     1   15   22  -0.300   0.010        0
   145  3250-32-7       1   15   22  -0.300   0.010        0
   146  3250-36-352     1   15   22  -0.300   0.010        0
   147  3308-56-25     -2   15   22  -0.380   0.080        0
   148  3308-61-73     -2   15   22  -0.380   0.080        0
   149  3308-66-20     -2   15   22  -0.380   0.080        0
   150  3249-16-363     1   15   22  -0.420  -0.340        0
   151  3249-21-340     1   15   22  -0.420  -0.340        0
   152  3249-36-352     1   15   22  -0.420  -0.340        0
   153  3249-56-25      1   15   22  -0.420  -0.340        0
   154  3249-61-73      1   15   22  -0.420  -0.340        0
   155  3233-3-355      1   15   22   0.390   0.430        0
   156  3233-6-341      1   15   22   0.390   0.430        0
   157  3233-12-59      1   15   22   0.390   0.430        0
   158  3233-16-311     1   15   22   0.390   0.430        0
   159  3230-16-348    -2   16   23  -0.460  -0.020        0
   160  3230-21-340    -2   16   23  -0.460  -0.020        0
   161  3230-27-1      -2   16   23  -0.460  -0.020        0
   162  3230-32-7      -2   16   23  -0.460  -0.020        0
   163  3230-36-352     2   16   23  -0.460  -0.020        0
   164  3230-56-25      2   16   23  -0.460  -0.020        0
   165  3230-61-72      2   16   23  -0.460  -0.020        0
   166  3229-17-4      -2   15   23   0.430   0.440        0
   167  3247-61-73      2   15   24  -0.180  -0.370        0
   168  3247-66-20      2   15   24  -0.180  -0.370        0
   169  3368-56-25      3    5   30  -0.230   0.240        0
   170  3333-12-10      2    7   30   0.410   0.170        0
   171  3333-16-343     2    7   30   0.410   0.170        0
   172  3333-32-85      3    7   30   0.410   0.170        0
   173  3333-35-53      3    7   30   0.410   0.170        0
   174  3332-49-54      2    7   30   0.410   0.200        0
   175  3332-56-26      2    7   30   0.410   0.200        0
   176  3332-60-319     2    7   30   0.410   0.200        0
   177  3332-65-298     2    7   30   0.410   0.200        0
   178  3332-71-13      2    7   30   0.410   0.200        0
   179  3332-71-365     2    7   30   0.410   0.200        0
   180  3330-56-25      2    8   29  -0.360   0.490        0
   181  3315-48-300     3    9   28  -0.140   0.090        0
   182  3315-55-321     3    9   28  -0.140   0.090        0
   183  3315-60-312     3    9   28  -0.140   0.090        0
   184  3315-65-363     3    9   28  -0.140   0.090        0
   185  3315-71-351     3    9   28  -0.140   0.090        0
   186  3316-48-300     2    9   28  -0.140   0.090        0
   187  3316-55-321     2    9   28  -0.140   0.090        0
   188  3316-60-312     2    9   28  -0.140   0.090        0
   189  3316-65-363     2    9   28  -0.140   0.090        0
   190  3316-71-351     2    9   28  -0.140   0.090        0
   191  3284-56-25      3   11   34   0.320   0.050        0
   192  3275-38-12      3   12   35  -0.290   0.050        0
   193  3287-38-24      2   11   30   0.160  -0.390        0
   194  3265-48-364     2   14   29  -0.470   0.250        0
   195  3265-56-25     -2   14   29  -0.470   0.250        0
   196  3228-56-20     -2   15   28   0.480   0.110        0
   197  3228-61-73     -2   15   28   0.480   0.110        0
   198  3228-66-19     -2   15   28   0.480   0.110        0
   199  3347-20-74      3    6   64  -0.200  -0.130        0
   200  3347-26-157     3    6   64  -0.200  -0.130        0
   201  3347-37-33      3    6   64  -0.200  -0.130        0
   202  3347-43-82      3    6   64  -0.200  -0.130        0
   203  3347-48-336     3    6   64  -0.200  -0.130        0
   204  3347-56-23      3    6   64  -0.200  -0.130        0
   205  3347-61-62      3    6   64  -0.200  -0.130        0
   206  3347-65-299     3    6   64  -0.200  -0.130        0
   207  3347-71-12      3    6   64  -0.200  -0.130        0
   208  3347-71-365     3    6   64  -0.200  -0.130        0
   209  3378-15-337     2    4   65  -0.350   0.330        0
   210  3378-26-127     2    4   65  -0.350   0.330        0
   211  3378-33-312     2    4   65  -0.350   0.330        0
   212  3378-43-82      2    4   65  -0.350   0.330        0
   213  3378-48-337     2    4   65  -0.350   0.330        0
   214  3378-56-23      2    4   65  -0.350   0.330        0
   215  3378-61-62      2    4   65  -0.350   0.330        0
   216  3378-66-18      2    4   65  -0.350   0.330        0
   217  3336-71-63      3    7   72   0.200   0.480        0
   218  3343-19-34      2    6   67   0.290   0.050        0
   219  3343-26-121     2    6   67   0.290   0.050        0
   220  3343-33-311     2    6   67   0.290   0.050        0
   221  3343-43-82      2    6   67   0.290   0.050        0
   222  3343-48-336     2    6   67   0.290   0.050        0
   223  3343-56-25      2    6   67   0.290   0.050        0
   224  3343-61-62      2    6   67   0.290   0.050        0
   225  3343-66-24      2    6   67   0.290   0.050        0
   226  3343-71-63      2    6   67   0.290   0.050        0
   227  3322-20-300     3    8   66   0.210  -0.090        0
   228  3322-26-127     3    8   66   0.210  -0.090        0
   229  3322-48-337     3    8   66   0.210  -0.090        0
   230  3322-56-25      3    8   66   0.210  -0.090        0
   231  3322-61-60      3    8   66   0.210  -0.090        0
   232  3317-43-85      3    9   66  -0.490  -0.410        0
   233  3317-56-25      3    9   66  -0.490  -0.410        0
   234  3317-61-60      3    9   66  -0.490  -0.410        0
   235  3317-66-27      3    9   66  -0.490  -0.410        0
   236  3317-71-64      3    9   66  -0.490  -0.410        0
   237  3300-56-26      3   10   73  -0.420  -0.440        0
   238  3289-56-26      3   11   71  -0.080   0.000        0
   239  3289-61-65      3   11   71  -0.080   0.000        0
   240  3276-56-26      3   12   71  -0.360   0.260        0
   241  3270-56-26      2   12   72   0.140  -0.050        0
   242  3272-15-154     3   12   67  -0.010   0.340        0
   243  3272-26-125     3   12   67  -0.010   0.340        0
   244  3272-37-36      3   12   67  -0.010   0.340        0
   245  3272-43-27      3   12   67  -0.010   0.340        0
   246  3272-48-336     3   12   67  -0.010   0.340        0
   247  3272-56-26      3   12   67  -0.010   0.340        0
   248  3272-61-60      3   12   67  -0.010   0.340        0
   249  3272-71-12      2   12   67  -0.010   0.340        0
   250  3266-56-26      3   13   67   0.370  -0.180        0
   251  3260-33-313     2   14   73   0.130   0.180        0
   252  3260-48-334     2   14   73   0.130   0.180        0
   253  3260-56-26      2   14   73   0.130   0.180        0
   254  3222-38-6       2   16   24  -0.190   0.120        0
   255  3213-12-324     2   16   20   0.420   0.420        0
   256  3213-16-335     2   16   20   0.420   0.420        0
   257  3213-21-335     2   16   20   0.420   0.420        0
   258  3213-32-7       2   16   20   0.420   0.420        0
   259  3213-38-10      2   16   20   0.420   0.420        0
   260  3213-56-19      2   16   20   0.420   0.420        0
   261  3205-2-230     -2   17   18  -0.170   0.310        0
   262  3205-22-37     -2   17   18  -0.170   0.310        0
   263  3191-2-188      1   18   18  -0.250   0.340        0
   264  3178-17-4       2   18   18   0.440   0.430        0
   265  3178-22-37      2   18   18   0.440   0.430        0
   266  3178-32-85      2   18   18   0.440   0.430        0
   267  3178-36-65      2   18   18   0.440   0.430        0
   268  3178-42-349     2   18   18   0.440   0.430        0
   269  3178-48-341     2   18   18   0.440   0.430        0
   270  3178-56-23      2   18   18   0.440   0.430        0
   271  3178-60-319     2   18   18   0.440   0.430        0
   272  3177-17-4      -2   18   20   0.480  -0.330        0
   273  3176-11-297    -2   18   20   0.330   0.350        0
   274  3176-16-342    -2   18   20   0.330   0.350        0
   275  3176-21-342    -2   18   20   0.330   0.350        0
   276  3176-32-7       2   18   20   0.330   0.350        0
   277  3176-34-339     2   18   20   0.330   0.350        0
   278  3174-21-335     2   18   22   0.370   0.330        0
   279  3174-56-19      2   18   22   0.370   0.330        0
   280  3174-61-60      2   18   22   0.370   0.330        0
   281  3174-66-24      2   18   22   0.370   0.330        0
   282  3188-2-335      1   18   24  -0.120   0.400        0
   283  3188-6-341      1   18   24  -0.120   0.400        0
   284  3188-10-350     1   18   24  -0.120   0.400        0
   285  3199-38-6      -2   17   26   0.350   0.320        0
   286  3199-48-337    -2   17   26   0.350   0.320        0
   287  3199-61-60     -2   17   26   0.350   0.320        0
   288  3175-48-337     2   18   24   0.460   0.500        0
   289  3175-56-19      2   18   24   0.460   0.500        0
   290  3175-66-24      2   18   24   0.460   0.500        0
   291  3196-56-19      2   18   26  -0.460   0.480        0
   292  3171-21-335     2   19   26  -0.460   0.280        0
   293  3171-26-313     2   19   26  -0.460   0.280        0
   294  3171-48-337     2   19   26  -0.460   0.280        0
   295  3173-48-337     2   18   26   0.500   0.220        0
   296  3173-56-19      2   18   26   0.500   0.220        0
   297  3173-61-60      2   18   26   0.500   0.220        0
   298  3173-66-20      2   18   26   0.500   0.220        0
   299  3172-56-19      2   19   23  -0.470   0.430        0
   300  3172-61-60      2   19   23  -0.470   0.430        0
   301  3172-66-24      2   19   23  -0.470   0.430        0
   302  3163-12-91      2   20   24  -0.360   0.110        0
   303  3163-21-335     2   20   24  -0.360   0.110        0
   304  3197-42-351    -2   17   22   0.420   0.330        0
   305  3197-48-348    -2   17   22   0.420   0.330        0
   306  3197-56-4      -2   17   22   0.420   0.330        0
   307  3197-61-5      -2   17   22   0.420   0.330        0
   308  3197-65-361    -2   17   22   0.420   0.330        0
   309  3197-71-355    -2   17   22   0.420   0.330        0
   310  3170-16-348    -2   19   22  -0.090   0.450        0
   311  3170-21-342     2   19   22  -0.090   0.450        0
   312  3170-38-6       2   19   22  -0.090   0.450        0
   313  3170-42-351     2   19   22  -0.090   0.450        0
   314  3170-48-348     2   19   22  -0.090   0.450        0
   315  3170-55-354     2   19   22  -0.090   0.450        0
   316  3170-61-5       2   19   22  -0.090   0.450        0
   317  3170-65-361     2   19   22  -0.090   0.450        0
   318  3170-71-355     2   19   22  -0.090   0.450        0
   319  3139-21-343     2   20   21   0.360   0.440        0
   320  3139-71-355     2   20   21   0.360   0.440        0
   321  3143-17-5       2   20   22   0.330   0.320        0
   322  3143-22-37      2   20   22   0.330   0.320        0
   323  3143-27-31      2   20   22   0.330   0.320        0
   324  3143-55-354     2   20   22   0.330   0.320        0
   325  3143-61-5       2   20   22   0.330   0.320        0
   326  3143-65-361     2   20   22   0.330   0.320        0
   327  3143-71-355     2   20   22   0.330   0.320        0
   328  3166-1-1       -2   19   18   0.360   0.330        0
   329  3166-11-335    -2   19   18   0.360   0.330        0
   330  3166-21-335    -2   19   18   0.360   0.330        0
   331  3100-16-338     3   22   17   0.490   0.480        0
   332  3100-21-335    -2   22   17   0.490   0.480        0
   333  3100-43-60      3   22   17   0.490   0.480        0
   334  3100-55-354     3   22   17   0.490   0.480        0
   335  3100-61-5      -2   22   17   0.490   0.480        0
   336  3100-66-20     -2   22   17   0.490   0.480        0
   337  3100-71-355    -2   22   17   0.490   0.480        0
   338  2939-42-351     2   22   18   0.380   0.160        0
   339  2939-61-5       2   22   18   0.380   0.160        0
   340  2939-70-352     2   22   18   0.380   0.160        0
   341  2939-71-355     2   22   18   0.380   0.160        0
   342  3099-21-335    -2   22   18   0.380   0.230        0
   343  3099-61-5      -2   22   18   0.380   0.230        0
   344  3099-66-20     -2   22   18   0.380   0.230        0
   345  3099-71-355    -2   22   18   0.380   0.230        0
   346  3113-1-59       2   21   22   0.440   0.350        0
   347  3113-6-341      2   21   22   0.440   0.350        0
   348  3113-12-362     2   21   22   0.440   0.350        0
   349  3113-22-37      2   21   22   0.440   0.350        0
   350  3113-27-31      2   21   22   0.440   0.350        0
   351  3113-37-341     2   21   22   0.440   0.350        0
   352  3113-42-349     2   21   22   0.440   0.350        0
   353  3113-48-341     2   21   22   0.440   0.350        0
   354  3113-55-354     2   21   22   0.440   0.350        0
   355  3113-60-319     2   21   22   0.440   0.350        0
   356  3113-65-298     2   21   22   0.440   0.350        0
   357  3113-71-355     2   21   22   0.440   0.350        0
   358  3097-12-170     2   22   22   0.470   0.410        0
   359  3097-17-5       2   22   22   0.470   0.410        0
   360  3097-42-351     2   22   22   0.470   0.410        0
   361  3097-48-348     2   22   22   0.470   0.410        0
   362  3097-55-354     2   22   22   0.470   0.410        0
   363  3097-61-5       2   22   22   0.470   0.410        0
   364  3097-65-361     2   22   22   0.470   0.410        0
   365  3097-71-355     2   22   22   0.470   0.410        0
   366  3095-42-351     2   22   22   0.390   0.310        0
   367  3095-48-348     2   22   22   0.390   0.310        0
   368  3095-55-354     2   22   22   0.390   0.310        0
   369  3095-61-5       2   22   22   0.390   0.310        0
   370  3095-65-361     2   22   22   0.390   0.310        0
   371  3095-71-355     2   22   22   0.390   0.310        0
   372  3096-8-283     -2   22   24   0.360   0.360        0
   373  3096-17-5      -2   22   24   0.360   0.360        0
   374  3096-21-335     2   22   24   0.360   0.360        0
   375  3135-8-282     -2   20   26   0.490   0.410        0
   376  3135-11-355    -2   20   26   0.490   0.410        0
   377  3135-16-349    -2   20   26   0.490   0.410        0
   378  3135-21-312     2   20   26   0.490   0.410        0
   379  3135-26-292     2   20   26   0.490   0.410        0
   380  3135-38-5       2   20   26   0.490   0.410        0
   381  3135-48-337     2   20   26   0.490   0.410        0
   382  3135-56-19      2   20   26   0.490   0.410        0
   383  3135-61-60      2   20   26   0.490   0.410        0
   384  3121-55-354     2   21   25   0.020   0.370        0
   385  3121-61-5       2   21   25   0.020   0.370        0
   386  3121-66-20      2   21   25   0.020   0.370        0
   387  3121-71-365     2   21   25   0.020   0.370        0
   388  3059-10-57      1   24   26   0.200   0.400        0
   389  3059-17-5       1   24   26   0.200   0.400        0
   390  3059-27-31      2   24   26   0.200   0.400        0
   391  3059-37-33      2   24   26   0.200   0.400        0
   392  3059-42-349     2   24   26   0.200   0.400        0
   393  3059-48-342     2   24   26   0.200   0.400        0
   394  3059-56-20      2   24   26   0.200   0.400        0
   395  3059-60-319     2   24   26   0.200   0.400        0
   396  3059-65-301     1   24   26   0.200   0.400        0
   397  3059-71-365     1   24   26   0.200   0.400        0
   398  3078-21-335     2   23   24   0.390   0.360        0
   399  3080-11-297    -2   23   23   0.200  -0.360        0
   400  3075-56-20      2   24   24  -0.420   0.390        0
   401  3089-2-339      2   23   21  -0.080   0.080        0
   402  3089-6-341      2   23   21  -0.080   0.080        0
   403  3089-12-362     2   23   21  -0.080   0.080        0
   404  3089-16-313     2   23   21  -0.080   0.080        0
   405  3089-42-351     2   23   21  -0.080   0.080        0
   406  3089-65-361     2   23   21  -0.080   0.080        0
   407  3089-71-355     2   23   21  -0.080   0.080        0
   408  3053-11-297     2   24   21   0.450   0.010        0
   409  3053-16-349     2   24   21   0.450   0.010        0
   410  3053-22-37      2   24   21   0.450   0.010        0
   411  3053-32-85      2   24   21   0.450   0.010        0
   412  3053-42-351     2   24   21   0.450   0.010        0
   413  3053-48-348     2   24   21   0.450   0.010        0
   414  3053-55-353     2   24   21   0.450   0.010        0
   415  3053-61-5       2   24   21   0.450   0.010        0
   416  3053-65-361     2   24   21   0.450   0.010        0
   417  3053-71-355     2   24   21   0.450   0.010        0
   418  3050-55-353     2   24   21   0.490   0.010        0
   419  3050-61-5       2   24   21   0.490   0.010        0
   420  3050-65-361     2   24   21   0.490   0.010        0
   421  3050-71-355     2   24   21   0.490   0.010        0
   422  3076-37-33      3   24   22  -0.420   0.310        0
   423  3076-42-349     3   24   22  -0.420   0.310        0
   424  3076-48-342     3   24   22  -0.420   0.310        0
   425  3076-56-23      3   24   22  -0.420   0.310        0
   426  3076-61-60      3   24   22  -0.420   0.310        0
   427  3076-66-24      3   24   22  -0.420   0.310        0
   428  3077-55-354     3   23   17   0.450   0.480        0
   429  3077-61-5       3   23   17   0.450   0.480        0
   430  3077-66-20      3   23   17   0.450   0.480        0
   431  3077-71-355     3   23   17   0.450   0.480        0
   432  3065-48-348    -2   24   17  -0.210   0.440        0
   433  3021-1-107      2   26   18  -0.440   0.280        0
   434  3021-7-3        2   26   18  -0.440   0.280        0
   435  3020-7-3        3   26   18  -0.440   0.350        0
   436  3020-12-59      3   26   18  -0.440   0.350        0
   437  3020-16-314     3   26   18  -0.440   0.350        0
   438  3020-22-37      3   26   18  -0.440   0.350        0
   439  3020-27-31      3   26   18  -0.440   0.350        0
   440  2989-12-59      2   26   22   0.410  -0.480        0
   441  2995-16-313     1   26   26   0.230   0.070        0
   442  2995-22-37      2   26   26   0.230   0.070        0
   443  2995-27-31      2   26   26   0.230   0.070        0
   444  2995-32-85      2   26   26   0.230   0.070        0
   445  3201-48-300     3   17   32   0.140   0.060        0
   446  3201-55-321     3   17   32   0.140   0.060        0
   447  3201-60-312     3   17   32   0.140   0.060        0
   448  3201-65-363     3   17   32   0.140   0.060        0
   449  3201-71-10      3   17   32   0.140   0.060        0
   450  3202-48-300     2   17   32   0.140   0.060        0
   451  3202-55-321     2   17   32   0.140   0.060        0
   452  3202-60-312     2   17   32   0.140   0.060        0
   453  3202-65-363     2   17   32   0.140   0.060        0
   454  3202-71-10      2   17   32   0.140   0.060        0
   455  3200-21-335     3   18   36  -0.090   0.180        0
   456  3200-32-6       3   18   36  -0.090   0.180        0
   457  3200-36-351     3   18   36  -0.090   0.180        0
   458  3200-49-54      3   18   36  -0.090   0.180        0
   459  3200-56-24      3   18   36  -0.090   0.180        0
   460  3200-60-319     3   18   36  -0.090   0.180        0
   461  3200-65-298     3   18   36  -0.090   0.180        0
   462  3200-71-365     3   18   36  -0.090   0.180        0
   463  3154-1-337     -2   20   32   0.120  -0.340        0
   464  3154-6-286     -2   20   32   0.120  -0.340        0
   465  3154-11-298    -2   20   32   0.120  -0.340        0
   466  3154-16-358    -2   20   32   0.120  -0.340        0
   467  3154-21-343     2   20   32   0.120  -0.340        0
   468  3154-32-85      2   20   32   0.120  -0.340        0
   469  3154-37-33      2   20   32   0.120  -0.340        0
   470  3154-42-349     2   20   32   0.120  -0.340        0
   471  3150-48-337     2   20   32   0.160  -0.370        0
   472  3150-56-23      2   20   32   0.160  -0.370        0
   473  3150-60-319     2   20   32   0.160  -0.370        0
   474  3150-65-298     2   20   32   0.160  -0.370        0
   475  3150-71-11      2   20   32   0.160  -0.370        0
   476  3150-71-365     2   20   32   0.160  -0.370        0
   477  3158-12-85      2   20   32  -0.380  -0.140        0
   478  3158-16-342     2   20   32  -0.380  -0.140        0
   479  3158-21-346     2   20   32  -0.380  -0.140        0
   480  3158-56-25      2   20   32  -0.380  -0.140        0
   481  3158-61-55      2   20   32  -0.380  -0.140        0
   482  3158-66-19      2   20   32  -0.380  -0.140        0
   483  3179-8-1       -2   18   29   0.280   0.460        0
   484  3151-12-33      2   20   31   0.150  -0.410        0
   485  3151-16-342     2   20   31   0.150  -0.410        0
   486  3151-21-346     2   20   31   0.150  -0.410        0
   487  3151-56-23      2   20   31   0.150  -0.410        0
   488  3151-61-55      2   20   31   0.150  -0.410        0
   489  3151-66-18      2   20   31   0.150  -0.410        0
   490  3167-34-152     2   19   28   0.120  -0.260        0
   491  3103-38-3       2   22   29   0.100  -0.230        0
   492  3101-66-24     -2   22   29   0.180  -0.290        0
   493  3105-8-1       -2   22   31   0.180  -0.440        0
   494  3105-56-23      2   22   31   0.180  -0.440        0
   495  3105-61-55      2   22   31   0.180  -0.440        0
   496  3105-66-18      2   22   31   0.180  -0.440        0
   497  3142-12-1      -2   20   32   0.350   0.470        0
   498  3142-16-342    -2   20   32   0.350   0.470        0
   499  3142-56-24      2   20   32   0.350   0.470        0
   500  3142-61-55      2   20   32   0.350   0.470        0
   501  3142-66-19      2   20   32   0.350   0.470        0
   502  3138-21-346     2   20   32   0.390   0.470        0
   503  3138-56-24      2   20   32   0.390   0.470        0
   504  3138-61-55      2   20   32   0.390   0.470        0
   505  3138-66-19      2   20   32   0.390   0.470        0
   506  3119-48-337     2   21   32   0.190  -0.050        0
   507  3119-56-23      2   21   32   0.190  -0.050        0
   508  3119-61-60      2   21   32   0.190  -0.050        0
   509  3119-66-18      2   21   32   0.190  -0.050        0
   510  3130-2-305      1   21   32  -0.150   0.470        0
   511  3108-8-32      -2   22   33  -0.080  -0.200        0
   512  3104-56-26      2   22   34   0.070  -0.170        0
   513  3104-61-55      2   22   34   0.070  -0.170        0
   514  3104-66-19      2   22   34   0.070  -0.170        0
   515  3102-56-26     -2   22   34   0.110   0.000        0
   516  3102-61-55     -2   22   34   0.110   0.000        0
   517  3102-66-19     -2   22   34   0.110   0.000        0
   518  3140-48-300     3   20   35   0.350  -0.320        0
   519  3141-48-300     3   20   35   0.350  -0.320        0
   520  3061-66-19     -2   24   38   0.070  -0.470        0
   521  3085-1-337     -3   23   35   0.110   0.190        0
   522  3085-6-286     -3   23   35   0.110   0.190        0
   523  3085-11-361    -3   23   35   0.110   0.190        0
   524  3085-16-350    -3   23   35   0.110   0.190        0
   525  3085-21-346    -2   23   35   0.110   0.190        0
   526  3064-56-25      2   24   37  -0.050  -0.410        0
   527  3083-56-23     -2   23   34   0.150  -0.270        0
   528  3083-61-55     -2   23   34   0.150  -0.270        0
   529  3083-66-18     -2   23   34   0.150  -0.270        0
   530  3084-10-60     -2   23   32   0.140   0.080        0
   531  3084-48-341     2   23   32   0.140   0.080        0
   532  3084-56-23      2   23   32   0.140   0.080        0
   533  3084-61-55      2   23   32   0.140   0.080        0
   534  3084-66-18      2   23   32   0.140   0.080        0
   535  3081-48-341     2   23   32   0.180  -0.310        0
   536  3081-56-23      2   23   32   0.180  -0.310        0
   537  3081-61-55      2   23   32   0.180  -0.310        0
   538  3081-66-18      2   23   32   0.180  -0.310        0
   539  3079-1-365      1   23   32   0.370  -0.150        0
   540  3058-48-337     2   24   33   0.140  -0.400        0
   541  3058-56-23      2   24   33   0.140  -0.400        0
   542  3058-61-55      2   24   33   0.140  -0.400        0
   543  3058-66-18      2   24   33   0.140  -0.400        0
   544  3086-12-247    -2   23   31   0.100  -0.480        0
   545  3107-1-365      2   22   28  -0.050   0.480        0
   546  3107-11-334     2   22   28  -0.050   0.480        0
   547  3040-10-32      2   25   28   0.050   0.470        0
   548  3017-71-5       1   26   26  -0.310   0.490        0
   549  3017-71-365     1   26   26  -0.310   0.490        0
   550  3015-55-354     2   26   26  -0.270   0.490        0
   551  3015-71-5       2   26   26  -0.270   0.490        0
   552  3015-71-365     2   26   26  -0.270   0.490        0
   553  3054-10-32      2   24   31   0.330  -0.450        0
   554  3046-12-247     2   25   31  -0.370  -0.450        0
   555  3046-16-350     2   25   31  -0.370  -0.450        0
   556  3046-21-343     2   25   31  -0.370  -0.450        0
   557  3046-32-8       2   25   31  -0.370  -0.450        0
   558  3046-36-87      2   25   31  -0.370  -0.450        0
   559  3036-11-18     -2   25   31   0.170  -0.450        0
   560  3036-16-350    -2   25   31   0.170  -0.450        0
   561  3036-21-335    -2   25   31   0.170  -0.450        0
   562  3030-12-247    -2   25   33   0.250  -0.440        0
   563  3030-16-350    -2   25   33   0.250  -0.440        0
   564  3030-21-346    -2   25   33   0.250  -0.440        0
   565  3038-1-337     -3   25   35   0.140  -0.430        0
   566  3038-6-286     -3   25   35   0.140  -0.430        0
   567  3038-11-338    -3   25   35   0.140  -0.430        0
   568  3038-16-350    -3   25   35   0.140  -0.430        0
   569  3038-21-312    -3   25   35   0.140  -0.430        0
   570  3038-42-349    -3   25   35   0.140  -0.430        0
   571  3035-48-337    -2   25   35   0.140  -0.390        0
   572  3035-56-23     -2   25   35   0.140  -0.390        0
   573  3035-60-319    -2   25   35   0.140  -0.390        0
   574  3035-66-18     -2   25   35   0.140  -0.390        0
   575  3035-71-11     -2   25   35   0.140  -0.390        0
   576  3035-71-365    -2   25   35   0.140  -0.390        0
   577  3007-12-76     -3   26   35   0.090  -0.460        0
   578  3007-48-337    -2   26   35   0.090  -0.460        0
   579  3007-56-23     -2   26   35   0.090  -0.460        0
   580  3007-61-55      3   26   35   0.090  -0.460        0
   581  3007-66-18      3   26   35   0.090  -0.460        0
   582  3032-10-32     -3   25   36   0.220   0.260        0
   583  3032-48-337    -3   25   36   0.220   0.260        0
   584  3032-56-23     -3   25   36   0.220   0.260        0
   585  3032-61-55     -3   25   36   0.220   0.260        0
   586  3032-66-27     -3   25   36   0.220   0.260        0
   587  3006-56-23      2   26   36   0.100  -0.390        0
   588  3006-61-55      2   26   36   0.100  -0.390        0
   589  3006-66-18      2   26   36   0.100  -0.390        0
   590  3005-10-60      2   26   36   0.100   0.490        0
   591  3005-48-337     2   26   36   0.100   0.490        0
   592  3005-56-23      2   26   36   0.100   0.490        0
   593  3005-61-55      2   26   36   0.100   0.490        0
   594  3005-66-18      2   26   36   0.100   0.490        0
   595  3002-56-23      1   26   37   0.140   0.140        0
   596  3002-61-55      1   26   37   0.140   0.140        0
   597  3002-66-19      1   26   37   0.140   0.140        0
   598  3182-48-337     2   18   29   0.200  -0.380        0
   599  3182-56-19      2   18   29   0.200  -0.380        0
   600  3182-61-60      2   18   29   0.200  -0.380        0
   601  3182-66-27      2   18   29   0.200  -0.380        0
   602  3155-8-1        2   20   29   0.190  -0.390        0
   603  3155-48-337     2   20   29   0.190  -0.390        0
   604  3155-56-19      2   20   29   0.190  -0.390        0
   605  3155-66-24      2   20   29   0.190  -0.390        0
   606  2695-43-60      2   26   26  -0.340   0.490        0
   607  2695-55-354     2   26   26  -0.340   0.490        0
   608  2695-61-7       2   26   26  -0.340   0.490        0
   609  2695-65-361     2   26   26  -0.340   0.490        0
   610  2695-71-5       2   26   26  -0.340   0.490        0
   611  2695-71-365     2   26   26  -0.340   0.490        0
   612  3037-48-364     2   25   39   0.140  -0.270        0
   613  3009-56-25      2   26   40   0.030   0.450        0
   614  3009-61-55      2   26   40   0.030   0.450        0
   615  3001-56-25      2   26   41   0.140  -0.460        0
   616  3001-61-55      2   26   41   0.140  -0.460        0
   617  3004-17-1       3   26   46   0.110   0.130        0
   618  3004-22-1       3   26   46   0.110   0.130        0
   619  3004-27-32      3   26   46   0.110   0.130        0
   620  3004-37-36      3   26   46   0.110   0.130        0
   621  3004-66-24      3   26   46   0.110   0.130        0
   622  3004-71-57      3   26   46   0.110   0.130        0
   623  3010-48-334     2   26   51   0.000   0.120        0
   624  3010-56-27      2   26   51   0.000   0.120        0
   625  3039-42-364     3   25   56   0.080  -0.010        0
   626  3039-48-335     3   25   56   0.080  -0.010        0
   627  3039-56-25      3   25   56   0.080  -0.010        0
   628  3019-31-297     2   26   55  -0.340   0.150        0
   629  2997-36-32      2   26   56   0.230  -0.360        0
   630  2997-43-41      2   26   56   0.230  -0.360        0
   631  2997-48-334     2   26   56   0.230  -0.360        0
   632  3012-31-339     2   26   57  -0.080  -0.130        0
   633  3016-8-222      2   26   58  -0.270  -0.350        0
   634  3016-11-53      2   26   58  -0.270  -0.350        0
   635  3014-42-365     2   26   58  -0.110  -0.350        0
   636  3014-48-334     2   26   58  -0.110  -0.350        0
   637  3014-56-24      2   26   58  -0.110  -0.350        0
   638  3014-61-59      2   26   58  -0.110  -0.350        0
   639  3014-66-25      2   26   58  -0.110  -0.350        0
   640  3014-71-54      2   26   58  -0.110  -0.350        0
   641  3013-43-6       3   26   58  -0.040   0.300        0
   642  3013-48-335     3   26   58  -0.040   0.300        0
   643  3013-56-26      3   26   58  -0.040   0.300        0
   644  3013-66-28      3   26   58  -0.040   0.300        0
   645  3041-66-33      3   25   62   0.040   0.220        0
   646  3041-71-61      3   25   62   0.040   0.220        0
   647  3055-11-56      3   24   61   0.320  -0.330        0
   648  3055-43-6       3   24   61   0.320  -0.330        0
   649  3055-48-335     3   24   61   0.320  -0.330        0
   650  3055-56-19      3   24   61   0.320  -0.330        0
   651  3251-48-334     2   15   71  -0.290   0.240        0
   652  3246-56-26      2   15   71  -0.140   0.240        0
   653  3248-16-116     2   15   71  -0.260   0.240        0
   654  3248-21-116     2   15   71  -0.260   0.240        0
   655  3248-26-125     2   15   71  -0.260   0.240        0
   656  3248-31-111     2   15   71  -0.260   0.240        0
   657  3248-37-36      2   15   71  -0.260   0.240        0
   658  3248-43-81      2   15   71  -0.260   0.240        0
   659  3248-48-334     2   15   71  -0.260   0.240        0
   660  3248-56-26      2   15   71  -0.260   0.240        0
   661  3248-71-61      2   15   71  -0.260   0.240        0
   662  3242-56-26     -2   15   71  -0.030  -0.060        0
   663  3241-61-61      2   15   71   0.200   0.400        0
   664  3241-66-18      2   15   71   0.200   0.400        0
   665  3241-71-61      2   15   71   0.200   0.400        0
   666  3235-71-64      2   15   71   0.390  -0.090        0
   667  3221-66-33      2   16   69  -0.180   0.230        0
   668  3262-42-335     2   14   68  -0.060  -0.490        0
   669  3262-49-8       2   14   68  -0.060  -0.490        0
   670  3262-55-342     2   14   68  -0.060  -0.490        0
   671  3262-61-35      2   14   68  -0.060  -0.490        0
   672  3262-66-33      2   14   68  -0.060  -0.490        0
   673  3262-71-323     2   14   68  -0.060  -0.490        0
   674  3256-27-125    -2   15   67  -0.440  -0.300        0
   675  3256-37-36     -2   15   67  -0.440  -0.300        0
   676  3256-48-356    -2   15   67  -0.440  -0.300        0
   677  3256-55-342    -2   15   67  -0.440  -0.300        0
   678  3256-66-33     -2   15   67  -0.440  -0.300        0
   679  3256-71-323    -2   15   67  -0.440  -0.300        0
   680  3252-43-81      2   15   67  -0.330  -0.470        0
   681  3252-48-336     2   15   67  -0.330  -0.470        0
   682  3252-56-27      2   15   67  -0.330  -0.470        0
   683  3252-60-323     2   15   67  -0.330  -0.470        0
   684  3252-65-299     2   15   67  -0.330  -0.470        0
   685  3252-71-365     2   15   67  -0.330  -0.470        0
   686  3253-55-342     3   15   67  -0.410  -0.300        0
   687  3253-60-335     3   15   67  -0.410  -0.300        0
   688  3253-66-34      3   15   67  -0.410  -0.300        0
   689  3253-71-323     3   15   67  -0.410  -0.300        0
   690  3263-16-299    -2   16   67  -0.100  -0.240        0
   691  3263-26-127    -2   16   67  -0.100  -0.240        0
   692  3263-43-60     -2   16   67  -0.100  -0.240        0
   693  3263-48-356    -2   16   67  -0.100  -0.240        0
   694  3263-56-24     -2   16   67  -0.100  -0.240        0
   695  3263-66-33     -2   16   67  -0.100  -0.240        0
   696  3263-71-365    -2   16   67  -0.100  -0.240        0
   697  3224-56-27      2   16   68  -0.370   0.380        0
   698  3209-33-314     2   17   68  -0.380  -0.430        0
   699  3210-43-81     -2   17   67  -0.300  -0.040        0
   700  3210-48-336    -2   17   67  -0.300  -0.040        0
   701  3210-56-26     -2   17   67  -0.300  -0.040        0
   702  3195-33-32     -2   18   67  -0.420  -0.500        0
   703  3180-34-152    -2   18   67   0.080   0.310        0
   704  3184-66-28      2   18   68   0.080  -0.230        0
   705  3184-71-62      2   18   68   0.080  -0.230        0
   706  3186-66-28      2   18   68   0.040  -0.230        0
   707  3186-71-60      2   18   68   0.040  -0.230        0
   708  3183-66-31      2   18   68   0.080   0.450        0
   709  3207-43-7       2   17   70  -0.270   0.430        0
   710  3207-48-334     2   17   70  -0.270   0.430        0
   711  3207-56-26      2   17   70  -0.270   0.430        0
   712  3190-43-7       2   18   69  -0.120  -0.390        0
   713  3190-48-336     2   18   69  -0.120  -0.390        0
   714  3190-56-25      2   18   69  -0.120  -0.390        0
   715  3194-71-62      2   18   70  -0.430   0.200        0
   716  3192-66-34      2   18   70  -0.380   0.170        0
   717  3192-71-60      2   18   70  -0.380   0.170        0
   718  3187-43-7      -2   18   70   0.000  -0.160        0
   719  3187-48-334    -2   18   70   0.000  -0.160        0
   720  3203-71-62      2   17   71  -0.040  -0.480        0
   721  3165-71-62      2   19   69   0.480   0.360        0
   722  3148-43-7      -2   20   69   0.260  -0.420        0
   723  3157-71-62      2   20   69  -0.050   0.340        0
   724  3152-71-62      2   20   69   0.220   0.290        0
   725  3169-43-8       3   19   67   0.110   0.440        0
   726  3169-48-336     3   19   67   0.110   0.440        0
   727  3169-66-34      3   19   67   0.110   0.440        0
   728  3169-71-61      2   19   67   0.110   0.440        0
   729  3168-43-7      -2   19   66  -0.310   0.240        0
   730  3168-56-26     -2   19   66  -0.310   0.240        0
   731  3168-66-34     -2   19   66  -0.310   0.240        0
   732  3156-27-289    -2   20   67  -0.120   0.380        0
   733  3144-43-7      -2   20   67   0.330  -0.070        0
   734  3144-56-25     -2   20   67   0.330  -0.070        0
   735  3144-66-34     -2   20   67   0.330  -0.070        0
   736  3144-71-60     -2   20   67   0.330  -0.070        0
   737  3110-43-5       2   22   67  -0.290  -0.140        0
   738  3110-48-335     2   22   67  -0.290  -0.140        0
   739  3136-43-7      -2   20   69   0.490   0.330        0
   740  3136-48-334    -2   20   69   0.490   0.330        0
   741  3136-56-26     -2   20   69   0.490   0.330        0
   742  3136-66-35     -2   20   69   0.490   0.330        0
   743  3136-71-61     -2   20   69   0.490   0.330        0
   744  3093-5-82       2   23   68  -0.290  -0.200        0
   745  3093-6-97       2   23   68  -0.290  -0.200        0
   746  3093-16-133     2   23   68  -0.290  -0.200        0
   747  3093-26-124     2   23   68  -0.290  -0.200        0
   748  3093-37-37      2   23   68  -0.290  -0.200        0
   749  3093-43-7       2   23   68  -0.290  -0.200        0
   750  3094-48-337    -2   20   64   0.370   0.300        0
   751  3094-66-33     -2   20   64   0.370   0.300        0
   752  3094-71-61     -2   20   64   0.370   0.300        0
   753  3057-48-337     2   24   63   0.240   0.000        0
   754  3057-56-25      2   24   63   0.240   0.000        0
   755  3011-48-337    -2   26   63  -0.110   0.040        0
   756  3011-66-33     -2   26   63  -0.110   0.040        0
   757  3011-71-61     -2   26   63  -0.110   0.040        0
   758  3026-48-337    -2   25   64   0.460  -0.250        0
   759  3026-56-25     -2   25   64   0.460  -0.250        0
   760  2999-16-361    -2   26   65   0.270  -0.410        0
   761  2999-22-31     -2   26   65   0.270  -0.410        0
   762  2999-27-11     -2   26   65   0.270  -0.410        0
   763  2999-31-351    -2   26   65   0.270  -0.410        0
   764  2999-37-343    -2   26   65   0.270  -0.410        0
   765  2999-56-25     -2   26   65   0.270  -0.410        0
   766  2999-66-33     -2   26   65   0.270  -0.410        0
   767  2999-71-61     -2   26   65   0.270  -0.410        0
   768  2994-43-5       2   26   65   0.270  -0.050        0
   769  2994-56-25      2   26   65   0.270  -0.050        0
   770  3029-48-336     3   25   67   0.420  -0.460        0
   771  3029-56-26      3   25   67   0.420  -0.460        0
   772  3029-66-33      3   25   67   0.420  -0.460        0
   773  3008-48-336     2   26   69   0.030  -0.250        0
   774  3008-56-26      2   26   69   0.030  -0.250        0
   775  2963-1-107      2   28   22  -0.140   0.270        0
   776  2948-17-4       2   28   22   0.360  -0.120        0
   777  2982-48-348     3   27   20   0.470  -0.300        0
   778  2982-55-354     3   27   20   0.470  -0.300        0
   779  2982-61-7       3   27   20   0.470  -0.300        0
   780  2982-66-55      3   27   20   0.470  -0.300        0
   781  2982-71-355     3   27   20   0.470  -0.300        0
   782  2968-71-365     2   28   20  -0.330   0.290        0
   783  2951-42-351     2   28   20   0.470  -0.430        0
   784  2951-48-348     2   28   20   0.470  -0.430        0
   785  2951-55-354     2   28   20   0.470  -0.430        0
   786  2951-61-5       2   28   20   0.470  -0.430        0
   787  2951-66-20      2   28   20   0.470  -0.430        0
   788  2951-71-355     2   28   20   0.470  -0.430        0
   789  2950-12-335     3   28   20   0.470   0.060        0
   790  2950-55-354     3   28   20   0.470   0.060        0
   791  2945-1-107      2   29   18  -0.270   0.470        0
   792  2945-7-3        2   29   18  -0.270   0.470        0
   793  2945-10-320     2   29   18  -0.270   0.470        0
   794  2902-42-351     2   30   20   0.460  -0.180        0
   795  2902-48-348     2   30   20   0.460  -0.180        0
   796  2902-55-354     2   30   20   0.460  -0.180        0
   797  2902-61-5       2   30   20   0.460  -0.180        0
   798  2902-66-20      2   30   20   0.460  -0.180        0
   799  2902-71-355     2   30   20   0.460  -0.180        0
   800  2906-12-332     3   30   20   0.420   0.380        0
   801  2906-17-4      -2   30   20   0.420   0.380        0
   802  2906-22-34     -2   30   20   0.420   0.380        0
   803  2906-32-85      3   30   20   0.420   0.380        0
   804  2906-37-33     -2   30   20   0.420   0.380        0
   805  2906-48-365    -2   30   20   0.420   0.380        0
   806  2906-55-354    -2   30   20   0.420   0.380        0
   807  2906-61-5      -2   30   20   0.420   0.380        0
   808  2906-66-20     -2   30   20   0.420   0.380        0
   809  2906-71-365    -2   30   20   0.420   0.380        0
   810  2922-16-313     2   29   23   0.430  -0.120        0
   811  2922-22-34      2   29   23   0.430  -0.120        0
   812  2922-27-13      2   29   23   0.430  -0.120        0
   813  2559-17-6      -3   29   25   0.480  -0.240        0
   814  2559-42-351    -2   29   25   0.480  -0.240        0
   815  2559-48-348    -2   29   25   0.480  -0.240        0
   816  2559-56-3      -2   29   25   0.480  -0.240        0
   817  2559-66-20     -3   29   25   0.480  -0.240        0
   818  2559-71-365    -3   29   25   0.480  -0.240        0
   819  2920-1-109      2   29   19   0.500  -0.110        0
   820  2901-42-351     2   30   25   0.400  -0.080        0
   821  2901-55-355     2   30   25   0.400  -0.080        0
   822  2901-61-5       2   30   25   0.400  -0.080        0
   823  2901-66-20      2   30   25   0.400  -0.080        0
   824  2901-71-365     2   30   25   0.400  -0.080        0
   825  2905-17-6      -2   30   25   0.430  -0.080        0
   826  2905-22-34     -2   30   25   0.430  -0.080        0
   827  2905-42-351     2   30   25   0.430  -0.080        0
   828  2905-71-50     -2   30   25   0.430  -0.080        0
   829  2905-71-365    -2   30   25   0.430  -0.080        0
   830  2907-42-351     3   30   25   0.210  -0.080        0
   831  2907-48-348     3   30   25   0.210  -0.080        0
   832  2907-55-355     3   30   25   0.210  -0.080        0
   833  2907-61-5       3   30   25   0.210  -0.080        0
   834  2907-66-20      3   30   25   0.210  -0.080        0
   835  2907-71-365     2   30   25   0.210  -0.080        0
   836  2900-17-6      -2   30   26   0.440  -0.140        0
   837  2900-56-20      2   30   26   0.440  -0.140        0
   838  2900-66-26      2   30   26   0.440  -0.140        0
   839  2874-3-290      2   31   23   0.420  -0.390        0
   840  2838-3-1        2   32   23   0.340  -0.390        0
   841  2809-16-354    -2   33   18   0.480   0.160        0
   842  2788-1-105      2   34   18   0.240   0.160        0
   843  2788-7-3        2   34   18   0.240   0.160        0
   844  2788-11-311     2   34   18   0.240   0.160        0
   845  2780-12-173     3   34   18   0.470   0.410        0
   846  2780-16-354     3   34   18   0.470   0.410        0
   847  2780-37-33      3   34   18   0.470   0.410        0
   848  2779-16-354    -2   34   20   0.480   0.040        0
   849  2779-22-34     -2   34   20   0.480   0.040        0
   850  2777-16-354     2   34   24   0.410  -0.030        0
   851  2787-16-335    -2   34   24   0.410   0.000        0
   852  2787-22-34      2   34   24   0.410   0.000        0
   853  2787-34-351     2   34   24   0.410   0.000        0
   854  2787-56-25      2   34   24   0.410   0.000        0
   855  2787-61-52      2   34   24   0.410   0.000        0
   856  2787-66-25      2   34   24   0.410   0.000        0
   857  2783-17-6      -2   34   25   0.450   0.400        0
   858  2783-56-25      2   34   25   0.450   0.400        0
   859  2783-66-20     -2   34   25   0.450   0.400        0
   860  2783-71-365    -2   34   25   0.450   0.400        0
   861  2790-66-20     -2   34   25   0.450   0.300        0
   862  2790-71-365    -2   34   25   0.450   0.300        0
   863  2745-16-354    -2   35   24   0.100   0.390        0
   864  2745-66-20     -2   35   24   0.100   0.390        0
   865  2745-71-365    -2   35   24   0.100   0.390        0
   866  2775-1-86       2   35   23  -0.480  -0.070        0
   867  2775-7-68       2   35   23  -0.480  -0.070        0
   868  2731-48-348    -2   35   24   0.480   0.360        0
   869  2731-55-354    -2   35   24   0.480   0.360        0
   870  2731-61-5      -2   35   24   0.480   0.360        0
   871  2731-66-20     -2   35   24   0.480   0.360        0
   872  2731-71-365    -2   35   24   0.480   0.360        0
   873  2771-22-21      2   35   21  -0.410  -0.440        0
   874  2718-17-6      -2   36   22  -0.140   0.280        0
   875  2718-27-13     -2   36   22  -0.140   0.280        0
   876  2769-56-26      3   34   16   0.460   0.040        0
   877  2769-61-55      3   34   16   0.460   0.040        0
   878  2769-66-26      3   34   16   0.460   0.040        0
   879  2758-7-344      3   35   15  -0.120  -0.420        0
   880  2675-48-348     3   37   15   0.100   0.130        0
   881  2675-61-4       3   37   15   0.100   0.130        0
   882  2675-66-20      3   37   15   0.100   0.130        0
   883  2675-71-365     3   37   15   0.100   0.130        0
   884  2637-42-351     3   38   16   0.370  -0.200        0
   885  2637-48-349     3   38   16   0.370  -0.200        0
   886  2637-55-355     3   38   16   0.370  -0.200        0
   887  2637-61-4       3   38   16   0.370  -0.200        0
   888  2637-66-51      3   38   16   0.370  -0.200        0
   889  2637-71-365     3   38   16   0.370  -0.200        0
   890  2641-16-355    -2   38   18   0.450   0.300        0
   891  2641-56-25     -2   38   18   0.450   0.300        0
   892  2641-61-53     -2   38   18   0.450   0.300        0
   893  2641-66-26     -2   38   18   0.450   0.300        0
   894  2640-42-351     3   38   19   0.420   0.050        0
   895  2640-48-348     3   38   19   0.420   0.050        0
   896  2640-55-355     3   38   19   0.420   0.050        0
   897  2640-61-4       3   38   19   0.420   0.050        0
   898  2640-66-20      3   38   19   0.420   0.050        0
   899  2640-71-4       3   38   19   0.420   0.050        0
   900  2640-71-365     3   38   19   0.420   0.050        0
   901  2636-42-351     3   38   19   0.380   0.150        0
   902  2636-48-348     3   38   19   0.380   0.150        0
   903  2636-55-355     3   38   19   0.380   0.150        0
   904  2636-61-4       3   38   19   0.380   0.150        0
   905  2636-66-20      3   38   19   0.380   0.150        0
   906  2636-71-5       3   38   19   0.380   0.150        0
   907  2636-71-365     3   38   19   0.380   0.150        0
   908  2639-12-178    -2   38   20   0.380   0.350        0
   909  2639-16-354    -2   38   20   0.380   0.350        0
   910  2639-42-351    -2   38   20   0.380   0.350        0
   911  2639-48-348    -2   38   20   0.380   0.350        0
   912  2639-71-50     -2   38   20   0.380   0.350        0
   913  2639-71-365    -2   38   20   0.380   0.350        0
   914  2654-56-25      3   38   21   0.150  -0.260        0
   915  2654-61-52      3   38   21   0.150  -0.260        0
   916  2978-1-364      1   27   38   0.130  -0.180        0
   917  2978-4-93       1   27   38   0.130  -0.180        0
   918  2964-48-300     3   28   39  -0.220  -0.370        0
   919  2964-55-321     3   28   39  -0.220  -0.370        0
   920  2964-60-313     3   28   39  -0.220  -0.370        0
   921  2964-65-364     3   28   39  -0.220  -0.370        0
   922  2964-71-349     3   28   39  -0.220  -0.370        0
   923  2965-71-350     2   28   39  -0.220  -0.370        0
   924  2985-17-5       1   27   31  -0.450   0.460        0
   925  2985-56-24      2   27   31  -0.450   0.460        0
   926  2985-61-56      2   27   31  -0.450   0.460        0
   927  2985-66-18      2   27   31  -0.450   0.460        0
   928  2913-56-23      2   30   28   0.210  -0.480        0
   929  2921-1-86       2   29   29   0.410  -0.080        0
   930  2921-7-3        2   29   29   0.410  -0.080        0
   931  2921-10-320     2   29   29   0.410  -0.080        0
   932  2921-12-361     2   29   29   0.410  -0.080        0
   933  2938-56-26      2   29   33   0.150  -0.410        0
   934  2938-61-59      2   29   33   0.150  -0.410        0
   935  2938-66-20      2   29   33   0.150  -0.410        0
   936  2935-22-34      2   29   32   0.230  -0.360        0
   937  2935-27-20      2   29   32   0.230  -0.360        0
   938  2935-56-24      2   29   32   0.230  -0.360        0
   939  2935-61-56      2   29   32   0.230  -0.360        0
   940  2935-66-19      2   29   32   0.230  -0.360        0
   941  2943-48-275     3   29   34  -0.230   0.440        0
   942  2944-48-275     2   29   34  -0.230   0.440        0
   943  2936-56-24     -2   29   38   0.120   0.490        0
   944  2936-61-55     -2   29   38   0.120   0.490        0
   945  2937-17-5      -2   29   37   0.120   0.130        0
   946  2937-22-34     -2   29   37   0.120   0.130        0
   947  2937-32-85     -2   29   37   0.120   0.130        0
   948  2937-42-349    -2   29   37   0.120   0.130        0
   949  2937-48-341    -2   29   37   0.120   0.130        0
   950  2937-56-24     -2   29   37   0.120   0.130        0
   951  2937-65-302    -2   29   37   0.120   0.130        0
   952  2915-12-6      -2   30   39  -0.380  -0.380        0
   953  2915-17-5      -2   30   39  -0.380  -0.380        0
   954  2915-56-24     -2   30   39  -0.380  -0.380        0
   955  2915-61-56     -2   30   39  -0.380  -0.380        0
   956  2915-66-19     -2   30   39  -0.380  -0.380        0
   957  2863-48-275     3   32   35  -0.130  -0.240        0
   958  2864-48-275     2   32   35  -0.130  -0.240        0
   959  2885-17-5       2   31   34  -0.120   0.110        0
   960  2885-56-24      2   31   34  -0.120   0.110        0
   961  2885-61-56      2   31   34  -0.120   0.110        0
   962  2867-17-6       2   32   33  -0.400  -0.390        0
   963  2867-21-335     2   32   33  -0.400  -0.390        0
   964  2867-56-24      2   32   33  -0.400  -0.390        0
   965  2867-61-56      2   32   33  -0.400  -0.390        0
   966  2867-66-19      2   32   33  -0.400  -0.390        0
   967  2887-56-24     -2   31   30   0.100  -0.110        0
   968  2887-66-19     -2   31   30   0.100  -0.110        0
   969  2886-17-6       2   31   31   0.100  -0.430        0
   970  2886-56-24      2   31   31   0.100  -0.430        0
   971  2886-61-56      2   31   31   0.100  -0.430        0
   972  2886-66-27      2   31   31   0.100  -0.430        0
   973  2850-1-86       1   32   29   0.130  -0.410        0
   974  2850-7-4        1   32   29   0.130  -0.410        0
   975  2850-12-361     1   32   29   0.130  -0.410        0
   976  2837-12-284    -2   32   31   0.210  -0.370        0
   977  2837-16-354     2   32   31   0.210  -0.370        0
   978  2837-22-34      2   32   31   0.210  -0.370        0
   979  2837-32-85      2   32   31   0.210  -0.370        0
   980  2837-37-34      2   32   31   0.210  -0.370        0
   981  2837-42-349     2   32   31   0.210  -0.370        0
   982  2837-48-341     2   32   31   0.210  -0.370        0
   983  2837-56-24      2   32   31   0.210  -0.370        0
   984  2837-60-319     2   32   31   0.210  -0.370        0
   985  2837-65-298    -2   32   31   0.210  -0.370        0
   986  2837-71-11     -2   32   31   0.210  -0.370        0
   987  2837-71-365    -2   32   31   0.210  -0.370        0
   988  2818-17-6       2   33   31   0.170  -0.470        0
   989  2818-56-24      2   33   31   0.170  -0.470        0
   990  2818-61-52      2   33   31   0.170  -0.470        0
   991  2818-66-25      2   33   31   0.170  -0.470        0
   992  2800-48-348     2   34   31  -0.070  -0.470        0
   993  2800-55-355     2   34   31  -0.070  -0.470        0
   994  2800-61-7       2   34   31  -0.070  -0.470        0
   995  2800-65-341     2   34   31  -0.070  -0.470        0
   996  2800-71-50      2   34   31  -0.070  -0.470        0
   997  2800-71-365     2   34   31  -0.070  -0.470        0
   998  2786-56-24      2   34   31   0.270  -0.440        0
   999  2786-61-52      2   34   31   0.270  -0.440        0
  1000  2786-66-25      2   34   31   0.270  -0.440        0
  1001  2770-1-86       2   35   31  -0.380  -0.440        0
  1002  2770-7-4        2   35   31  -0.380  -0.440        0
  1003  2770-12-361     2   35   31  -0.380  -0.440        0
  1004  2744-56-24      2   35   30   0.150  -0.190        0
  1005  2740-56-24      2   35   30   0.190   0.010        0
  1006  2741-17-6       2   35   30   0.190  -0.410        0
  1007  2694-1-86       2   36   31   0.460  -0.180        0
  1008  2694-5-67       2   36   31   0.460  -0.180        0
  1009  2643-2-60       2   38   33   0.300  -0.170        0
  1010  2643-6-284      2   38   33   0.300  -0.170        0
  1011  2643-11-275     2   38   33   0.300  -0.170        0
  1012  2933-56-23      2   29   28   0.180  -0.410        0
  1013  2851-16-354     2   32   28   0.010  -0.450        0
  1014  2851-65-341     2   32   28   0.010  -0.450        0
  1015  2851-71-50      2   32   28   0.010  -0.450        0
  1016  2851-71-365     2   32   28   0.010  -0.450        0
  1017  2854-65-341     2   32   28   0.160   0.230        0
  1018  2854-71-50      2   32   28   0.160   0.230        0
  1019  2854-71-365     2   32   28   0.160   0.230        0
  1020  2796-61-52      2   34   28   0.190   0.420        0
  1021  2796-66-33      2   34   28   0.190   0.420        0
  1022  2712-42-351     2   36   28   0.180  -0.330        0
  1023  2712-48-348     2   36   28   0.180  -0.330        0
  1024  2712-56-27      2   36   28   0.180  -0.330        0
  1025  2712-61-7       2   36   28   0.180  -0.330        0
  1026  2712-66-55      2   36   28   0.180  -0.330        0
  1027  2712-71-365     2   36   28   0.180  -0.330        0
  1028  2709-55-355     3   36   28   0.110   0.090        0
  1029  2709-61-7       3   36   28   0.110   0.090        0
  1030  2709-65-341     3   36   28   0.110   0.090        0
  1031  2709-71-365     3   36   28   0.110   0.090        0
  1032  2702-42-351     2   36   28   0.140   0.090        0
  1033  2702-48-348     2   36   28   0.140   0.090        0
  1034  2702-56-27      2   36   28   0.140   0.090        0
  1035  2702-61-7       2   36   28   0.140   0.090        0
  1036  2702-65-341     2   36   28   0.140   0.090        0
  1037  2702-71-365     2   36   28   0.140   0.090        0
  1038  2711-39-335     2   36   29   0.150  -0.460        0
  1039  2711-56-26      2   36   29   0.150  -0.460        0
  1040  2711-61-7       2   36   29   0.150  -0.460        0
  1041  2711-65-341     2   36   29   0.150  -0.460        0
  1042  2711-71-365     2   36   29   0.150  -0.460        0
  1043  2713-42-351     2   36   29  -0.010  -0.360        0
  1044  2713-56-26      2   36   29  -0.010  -0.360        0
  1045  2713-61-7       2   36   29  -0.010  -0.360        0
  1046  2713-65-341     2   36   29  -0.010  -0.360        0
  1047  2713-71-365     2   36   29  -0.010  -0.360        0
  1048  2682-56-23      2   37   32  -0.230   0.340        0
  1049  2682-61-53      2   37   32  -0.230   0.340        0
  1050  2682-66-28      2   37   32  -0.230   0.340        0
  1051  2866-12-332     2   32   26  -0.380   0.440        0
  1052  2866-17-6       2   32   26  -0.380   0.440        0
  1053  2998-43-6       2   26   49   0.230   0.140        0
  1054  3416-56-26      2   27   42  -0.090  -0.030        0
  1055  3416-61-55      2   27   42  -0.090  -0.030        0
  1056  3416-66-19      2   27   42  -0.090  -0.030        0
  1057  2986-8-305      1   27   41  -0.400  -0.290        0
  1058  2960-1-365      1   28   41   0.060  -0.260        0
  1059  2961-56-25     -2   28   42   0.210   0.070        0
  1060  2961-61-59     -2   28   42   0.210   0.070        0
  1061  2961-66-19     -2   28   42   0.210   0.070        0
  1062  2957-56-25     -2   28   42   0.210   0.490        0
  1063  2957-61-59     -2   28   42   0.210   0.490        0
  1064  2988-1-51       1   27   40  -0.440  -0.500        0
  1065  2984-8-213      1   27   40  -0.210  -0.500        0
  1066  2971-7-60       1   27   40   0.440   0.480        0
  1067  2969-56-25     -2   27   40   0.440   0.440        0
  1068  2969-61-55     -2   27   40   0.440   0.440        0
  1069  2969-66-19     -2   27   40   0.440   0.440        0
  1070  2976-56-25      1   27   40   0.370   0.120        0
  1071  2976-61-55      1   27   40   0.370   0.120        0
  1072  2976-66-19      1   27   40   0.370   0.120        0
  1073  2972-56-25      2   28   40  -0.480  -0.010        0
  1074  2972-66-19      2   28   40  -0.480  -0.010        0
  1075  2919-21-335     2   30   39  -0.340  -0.310        0
  1076  2946-56-25     -2   29   42  -0.410   0.070        0
  1077  2946-66-19     -2   29   42  -0.410   0.070        0
  1078  2927-22-17     -2   29   42   0.090  -0.390        0
  1079  2927-27-32     -2   29   42   0.090  -0.390        0
  1080  2955-8-276     -2   28   41   0.250  -0.390        0
  1081  2955-12-40     -2   28   41   0.250  -0.390        0
  1082  2955-17-1      -2   28   41   0.250  -0.390        0
  1083  2955-27-32     -2   28   41   0.250  -0.390        0
  1084  2955-32-12     -2   28   41   0.250  -0.390        0
  1085  2955-37-1      -2   28   41   0.250  -0.390        0
  1086  2926-56-26      1   29   42   0.440   0.130        0
  1087  2926-61-59      1   29   42   0.440   0.130        0
  1088  2942-1-365      1   29   43  -0.210   0.230        0
  1089  2916-56-25      1   30   43  -0.220  -0.290        0
  1090  2916-61-59      1   30   43  -0.220  -0.290        0
  1091  2916-66-20      1   30   43  -0.220  -0.290        0
  1092  2941-42-364     2   29   47  -0.210  -0.160        0
  1093  2941-48-335     2   29   47  -0.210  -0.160        0
  1094  2941-56-23      2   29   47  -0.210  -0.160        0
  1095  2941-61-59      2   29   47  -0.210  -0.160        0
  1096  2941-66-26      2   29   47  -0.210  -0.160        0
  1097  2941-71-54      2   29   47  -0.210  -0.160        0
  1098  3185-34-152     2   30   48  -0.440   0.460        0
  1099  2925-42-364     2   29   48   0.440  -0.160        0
  1100  2925-48-335     2   29   48   0.440  -0.160        0
  1101  2925-56-23      2   29   48   0.440  -0.160        0
  1102  2925-66-26      2   29   48   0.440  -0.160        0
  1103  2925-71-54      2   29   48   0.440  -0.160        0
  1104  2954-42-363     2   28   50   0.410  -0.370        0
  1105  2954-56-23      2   28   50   0.410  -0.370        0
  1106  2954-61-59      2   28   50   0.410  -0.370        0
  1107  2954-66-27      2   28   50   0.410  -0.370        0
  1108  2889-42-364     2   31   49  -0.180  -0.310        0
  1109  2889-48-336     2   31   49  -0.180  -0.310        0
  1110  2889-56-24      2   31   49  -0.180  -0.310        0
  1111  2880-22-18      2   31   50   0.240  -0.210        0
  1112  2880-27-32      2   31   50   0.240  -0.210        0
  1113  2880-38-1       2   31   50   0.240  -0.210        0
  1114  2880-42-363     2   31   50   0.240  -0.210        0
  1115  2893-1-274      2   31   48  -0.330   0.490        0
  1116  2893-4-279      2   31   48  -0.330   0.490        0
  1117  2893-5-285      2   31   48  -0.330   0.490        0
  1118  2893-12-46      2   31   48  -0.330   0.490        0
  1119  2893-17-19      2   31   48  -0.330   0.490        0
  1120  2893-22-1       2   31   48  -0.330   0.490        0
  1121  2893-27-32      2   31   48  -0.330   0.490        0
  1122  2893-32-14      2   31   48  -0.330   0.490        0
  1123  2893-38-1       2   31   48  -0.330   0.490        0
  1124  2896-42-363     2   31   47  -0.370   0.360        0
  1125  2853-42-364     2   32   49   0.010  -0.440        0
  1126  2853-48-336     2   32   49   0.010  -0.440        0
  1127  2853-56-24      2   32   49   0.010  -0.440        0
  1128  2853-61-59      2   32   49   0.010  -0.440        0
  1129  2853-66-27      2   32   49   0.010  -0.440        0
  1130  2853-71-55      2   32   49   0.010  -0.440        0
  1131  2858-42-363     1   32   46   0.080  -0.430        0
  1132  2858-48-336     1   32   46   0.080  -0.430        0
  1133  2858-56-24      1   32   46   0.080  -0.430        0
  1134  2858-61-59      1   32   46   0.080  -0.430        0
  1135  2858-66-27      1   32   46   0.080  -0.430        0
  1136  2858-71-62      1   32   46   0.080  -0.430        0
  1137  2904-2-1       -2   30   43   0.360   0.460        0
  1138  2892-1-360     -2   31   43  -0.260   0.460        0
  1139  2892-7-65      -2   31   43  -0.260   0.460        0
  1140  2892-11-334    -2   31   43  -0.260   0.460        0
  1141  2892-16-318    -2   31   43  -0.260   0.460        0
  1142  2892-22-34     -2   31   43  -0.260   0.460        0
  1143  2892-27-32     -2   31   43  -0.260   0.460        0
  1144  2892-31-351    -2   31   43  -0.260   0.460        0
  1145  2892-36-50     -2   31   43  -0.260   0.460        0
  1146  2909-56-25     -2   30   43   0.240   0.070        0
  1147  2909-61-59     -2   30   43   0.240   0.070        0
  1148  2909-66-19     -2   30   43   0.240   0.070        0
  1149  2911-56-25     -2   30   43   0.200  -0.120        0
  1150  2911-61-59     -2   30   43   0.200  -0.120        0
  1151  2911-66-19     -2   30   43   0.200  -0.120        0
  1152  2884-66-32      2   31   43   0.160   0.330        0
  1153  2865-8-91       2   32   43  -0.340  -0.350        0
  1154  2865-48-342     2   32   43  -0.340  -0.350        0
  1155  2848-66-32     -2   32   45   0.150  -0.410        0
  1156  2881-48-342     3   31   43   0.200  -0.420        0
  1157  2859-8-121      2   32   42   0.040   0.290        0
  1158  2871-56-24      2   32   39  -0.310  -0.280        0
  1159  2871-61-59      2   32   39  -0.310  -0.280        0
  1160  2871-66-27      2   32   39  -0.310  -0.280        0
  1161  2811-17-6       2   32   39   0.150  -0.380        0
  1162  2811-22-34      2   32   39   0.150  -0.380        0
  1163  2811-56-24      2   32   39   0.150  -0.380        0
  1164  2811-61-59      2   32   39   0.150  -0.380        0
  1165  2834-48-342     2   32   43   0.460  -0.420        0
  1166  2835-48-342     3   32   43   0.500  -0.420        0
  1167  2835-56-24      3   32   43   0.500  -0.420        0
  1168  2849-42-363     1   32   44   0.150   0.370        0
  1169  2849-48-336     1   32   44   0.150   0.370        0
  1170  2828-55-343     3   33   44  -0.310   0.370        0
  1171  2828-61-38      3   33   44  -0.310   0.370        0
  1172  2828-66-55      3   33   44  -0.310   0.370        0
  1173  2828-71-365     3   33   44  -0.310   0.370        0
  1174  2846-8-32      -3   32   44   0.190  -0.410        0
  1175  2847-56-24     -3   32   43   0.190   0.200        0
  1176  2833-1-283      1   33   43  -0.460   0.000        0
  1177  2821-43-27     -2   33   44   0.190  -0.410        0
  1178  2821-48-334    -2   33   44   0.190  -0.410        0
  1179  2821-56-23     -2   33   44   0.190  -0.410        0
  1180  2821-61-54     -2   33   44   0.190  -0.410        0
  1181  2821-66-13     -2   33   44   0.190  -0.410        0
  1182  2817-1-364      1   33   44   0.190  -0.410        0
  1183  2805-48-334    -2   34   44  -0.430  -0.410        0
  1184  2805-56-23     -2   34   44  -0.430  -0.410        0
  1185  2805-61-53     -2   34   44  -0.430  -0.410        0
  1186  2805-66-20     -2   34   44  -0.430  -0.410        0
  1187  2798-8-32      -2   34   44   0.070  -0.280        0
  1188  2792-48-334     2   34   44   0.140   0.110        0
  1189  2792-56-23      2   34   44   0.140   0.110        0
  1190  2792-61-53      2   34   44   0.140   0.110        0
  1191  2792-66-20      2   34   44   0.140   0.110        0
  1192  2820-3-338      2   33   46   0.070   0.120        0
  1193  2820-6-224      2   33   46   0.070   0.120        0
  1194  2820-7-11       2   33   46   0.070   0.120        0
  1195  2820-12-46      2   33   46   0.070   0.120        0
  1196  2820-17-19      2   33   46   0.070   0.120        0
  1197  2820-22-17      2   33   46   0.070   0.120        0
  1198  2820-27-32      2   33   46   0.070   0.120        0
  1199  2820-31-351     2   33   46   0.070   0.120        0
  1200  2820-37-28      2   33   46   0.070   0.120        0
  1201  2820-48-334     2   33   46   0.070   0.120        0
  1202  2820-56-23      2   33   46   0.070   0.120        0
  1203  2820-60-319     2   33   46   0.070   0.120        0
  1204  2820-65-299     2   33   46   0.070   0.120        0
  1205  2820-71-365     2   33   46   0.070   0.120        0
  1206  2802-48-334     3   34   46  -0.350   0.180        0
  1207  2802-56-23      3   34   46  -0.350   0.180        0
  1208  2802-61-53      3   34   46  -0.350   0.180        0
  1209  2802-66-20      3   34   46  -0.350   0.180        0
  1210  2795-17-19      2   34   46   0.150   0.090        0
  1211  2795-22-17      2   34   46   0.150   0.090        0
  1212  2795-32-13      2   34   46   0.150   0.090        0
  1213  2795-37-345     2   34   46   0.150   0.090        0
  1214  2795-49-5       2   34   46   0.150   0.090        0
  1215  2795-55-343     2   34   46   0.150   0.090        0
  1216  2795-71-365     2   34   46   0.150   0.090        0
  1217  2722-61-53     -2   36   49  -0.320   0.140        0
  1218  2723-61-53      2   36   49  -0.360   0.110        0
  1219  2723-66-20      2   36   49  -0.360   0.110        0
  1220  2715-48-335     2   36   49   0.140  -0.280        0
  1221  2715-56-23      2   36   49   0.140  -0.280        0
  1222  2715-61-53      2   36   49   0.140  -0.280        0
  1223  2715-66-20      2   36   49   0.140  -0.280        0
  1224  2754-1-365      1   35   48   0.030   0.000        0
  1225  2764-48-334    -2   35   47  -0.320   0.090        0
  1226  2764-56-23     -2   35   47  -0.320   0.090        0
  1227  2764-61-53     -2   35   47  -0.320   0.090        0
  1228  2764-66-20     -2   35   47  -0.320   0.090        0
  1229  2732-48-335     1   35   47   0.410  -0.040        0
  1230  2732-56-20      1   35   47   0.410  -0.040        0
  1231  2739-1-360      1   35   48   0.260   0.200        0
  1232  2736-8-32      -2   35   48   0.180   0.000        0
  1233  2724-48-334    -2   36   48  -0.400  -0.100        0
  1234  2724-56-23     -2   36   48  -0.400  -0.100        0
  1235  2724-61-53     -2   36   48  -0.400  -0.100        0
  1236  2724-66-20     -2   36   48  -0.400  -0.100        0
  1237  2737-42-363    -2   35   45   0.180  -0.340        0
  1238  2717-2-1        2   36   46   0.020  -0.500        0
  1239  2716-8-32       2   36   46   0.020  -0.240        0
  1240  2727-11-121     2   36   42  -0.400  -0.200        0
  1241  2789-12-271     2   34   39   0.250   0.170        0
  1242  2696-1-364      2   36   44   0.360   0.430        0
  1243  2696-6-341      2   36   44   0.360   0.430        0
  1244  2696-11-334     2   36   44   0.360   0.430        0
  1245  2696-16-313     2   36   44   0.360   0.430        0
  1246  2696-22-34      2   36   44   0.360   0.430        0
  1247  2708-48-337     2   36   44   0.170   0.490        0
  1248  2708-56-19      2   36   44   0.170   0.490        0
  1249  2708-66-28      2   36   44   0.170   0.490        0
  1250  2701-32-43     -3   36   46   0.290  -0.370        0
  1251  2701-42-363    -3   36   46   0.290  -0.370        0
  1252  2701-56-19     -3   36   46   0.290  -0.370        0
  1253  2668-42-363     1   38   46  -0.450  -0.340        0
  1254  2668-56-19      2   38   46  -0.450  -0.340        0
  1255  2668-61-52      2   38   46  -0.450  -0.340        0
  1256  2668-66-35      2   38   46  -0.450  -0.340        0
  1257  2681-8-32       1   37   49  -0.020  -0.410        0
  1258  2678-48-335     2   37   49   0.020  -0.410        0
  1259  2678-56-23      2   37   49   0.020  -0.410        0
  1260  2678-61-54      2   37   49   0.020  -0.410        0
  1261  2678-66-20      2   37   49   0.020  -0.410        0
  1262  2690-66-55      2   37   47  -0.330  -0.140        0
  1263  2692-2-1        2   37   47  -0.440  -0.010        0
  1264  2676-43-27     -2   37   51   0.130  -0.430        0
  1265  2676-48-335    -2   37   51   0.130  -0.430        0
  1266  2676-56-23     -2   37   51   0.130  -0.430        0
  1267  2676-61-53     -2   37   51   0.130  -0.430        0
  1268  2676-66-13     -2   37   51   0.130  -0.430        0
  1269  2705-48-335     1   36   50   0.220  -0.440        0
  1270  2705-56-23      1   36   50   0.220  -0.440        0
  1271  2705-61-54      1   36   50   0.220  -0.440        0
  1272  2705-66-18      1   36   50   0.220  -0.440        0
  1273  2707-43-27     -2   36   49   0.210   0.240        0
  1274  2707-48-335    -2   36   49   0.210   0.240        0
  1275  2707-56-23     -2   36   49   0.210   0.240        0
  1276  2707-61-53     -2   36   49   0.210   0.240        0
  1277  2707-66-20     -2   36   49   0.210   0.240        0
  1278  2689-48-335     1   37   49  -0.250  -0.350        0
  1279  2689-56-20      1   37   49  -0.250  -0.350        0
  1280  2656-43-27      1   38   49   0.130   0.140        0
  1281  2656-48-334     1   38   49   0.130   0.140        0
  1282  2656-56-23      1   38   49   0.130   0.140        0
  1283  2656-61-53      1   38   49   0.130   0.140        0
  1284  2656-66-20      1   38   49   0.130   0.140        0
  1285  2674-33-76      2   37   50   0.250   0.400        0
  1286  2973-56-19     -2   27   60   0.460  -0.110        0
  1287  2973-66-32     -2   27   60   0.460  -0.110        0
  1288  2973-71-56     -2   27   60   0.460  -0.110        0
  1289  2977-38-91     -2   27   60   0.460  -0.140        0
  1290  2977-43-6      -2   27   60   0.460  -0.140        0
  1291  2977-48-335    -2   27   60   0.460  -0.140        0
  1292  2977-66-32     -2   27   60   0.460  -0.140        0
  1293  2991-42-362     2   26   55   0.380  -0.010        0
  1294  2991-48-334     2   26   55   0.380  -0.010        0
  1295  2991-56-27      2   26   55   0.380  -0.010        0
  1296  2991-61-59      2   26   55   0.380  -0.010        0
  1297  2991-66-25      2   26   55   0.380  -0.010        0
  1298  2991-71-57      2   26   55   0.380  -0.010        0
  1299  2966-42-362    -2   28   55  -0.200  -0.310        0
  1300  2932-42-362     2   29   51   0.210  -0.330        0
  1301  2932-48-336     2   29   51   0.210  -0.330        0
  1302  2932-56-24      2   29   51   0.210  -0.330        0
  1303  2914-42-357     2   30   52  -0.020   0.490        0
  1304  2914-48-365     2   30   52  -0.020   0.490        0
  1305  2914-55-342     2   30   52  -0.020   0.490        0
  1306  2914-61-38      2   30   52  -0.020   0.490        0
  1307  2914-66-40      2   30   52  -0.020   0.490        0
  1308  2914-71-335     2   30   52  -0.020   0.490        0
  1309  2940-55-342     2   29   53  -0.280  -0.380        0
  1310  2917-42-365     2   30   53  -0.330   0.400        0
  1311  2917-48-336     2   30   53  -0.330   0.400        0
  1312  2917-56-26      2   30   53  -0.330   0.400        0
  1313  2917-61-59      2   30   53  -0.330   0.400        0
  1314  2917-66-27      2   30   53  -0.330   0.400        0
  1315  2917-71-55      2   30   53  -0.330   0.400        0
  1316  2924-42-362     2   29   54   0.370   0.430        0
  1317  2930-36-43      2   30   61  -0.440  -0.430        0
  1318  2930-56-27      2   30   61  -0.440  -0.430        0
  1319  2930-66-33      2   30   61  -0.440  -0.430        0
  1320  2930-71-56      2   30   61  -0.440  -0.430        0
  1321  2929-42-357    -2   29   62   0.290   0.490        0
  1322  2929-48-355    -2   29   62   0.290   0.490        0
  1323  2929-55-342    -2   29   62   0.290   0.490        0
  1324  2929-60-362    -2   29   62   0.290   0.490        0
  1325  2929-66-1      -2   29   62   0.290   0.490        0
  1326  2929-71-335    -2   29   62   0.290   0.490        0
  1327  2888-43-6      -2   31   61  -0.100  -0.230        0
  1328  2888-48-334    -2   31   61  -0.100  -0.230        0
  1329  2888-56-26     -2   31   61  -0.100  -0.230        0
  1330  2888-66-32     -2   31   61  -0.100  -0.230        0
  1331  2888-71-56     -2   31   61  -0.100  -0.230        0
  1332  2856-32-84     -2   32   61   0.050  -0.010        0
  1333  2852-43-5      -2   32   61   0.010   0.320        0
  1334  2852-56-19     -2   32   61   0.010   0.320        0
  1335  2852-66-35     -2   32   61   0.010   0.320        0
  1336  2852-71-56     -2   32   61   0.010   0.320        0
  1337  2869-43-8       2   32   62  -0.410   0.190        0
  1338  2869-48-334     2   32   62  -0.410   0.190        0
  1339  2869-56-24      2   32   62  -0.410   0.190        0
  1340  2899-42-362     2   30   55   0.480   0.280        0
  1341  2899-48-338     2   30   55   0.480   0.280        0
  1342  2903-33-257    -2   30   55   0.360  -0.140        0
  1343  2908-42-357     2   30   54   0.400   0.470        0
  1344  2908-48-356     2   30   54   0.400   0.470        0
  1345  2908-55-342     2   30   54   0.400   0.470        0
  1346  2908-66-26      2   30   54   0.400   0.470        0
  1347  2908-71-335     2   30   54   0.400   0.470        0
  1348  2879-55-342     2   31   53   0.240  -0.220        0
  1349  2879-61-40      2   31   53   0.240  -0.220        0
  1350  2879-66-19      2   31   53   0.240  -0.220        0
  1351  2879-71-335     2   31   53   0.240  -0.220        0
  1352  2878-66-26      2   31   54   0.240   0.470        0
  1353  2878-71-335     2   31   54   0.240   0.470        0
  1354  2897-1-274      2   31   52  -0.450   0.290        0
  1355  2897-6-284      2   31   52  -0.450   0.290        0
  1356  2898-11-34      2   31   52  -0.480   0.190        0
  1357  2898-16-361     2   31   52  -0.480   0.190        0
  1358  2898-37-33      2   31   52  -0.480   0.190        0
  1359  2882-43-32      2   31   51   0.160  -0.400        0
  1360  2882-48-365     2   31   51   0.160  -0.400        0
  1361  2882-55-342     2   31   51   0.160  -0.400        0
  1362  2882-61-38      2   31   51   0.160  -0.400        0
  1363  2882-66-40      2   31   51   0.160  -0.400        0
  1364  2882-71-335     2   31   51   0.160  -0.400        0
  1365  2870-33-274     2   32   51  -0.410  -0.240        0
  1366  2862-33-135     2   32   52  -0.220  -0.420        0
  1367  2824-66-31      2   33   52  -0.110   0.420        0
  1368  2824-71-54      2   33   52  -0.110   0.420        0
  1369  2807-49-5       2   34   54  -0.500   0.340        0
  1370  2807-55-342     2   34   54  -0.500   0.340        0
  1371  2807-71-62      2   34   54  -0.500   0.340        0
  1372  2797-71-62      2   34   56   0.070   0.450        0
  1373  2845-66-35      2   32   58   0.240   0.430        0
  1374  2845-71-62      2   32   58   0.240   0.430        0
  1375  2841-1-274      2   32   57   0.310  -0.290        0
  1376  2841-6-284      2   32   57   0.310  -0.290        0
  1377  2841-11-34      2   32   57   0.310  -0.290        0
  1378  2841-16-361     2   32   57   0.310  -0.290        0
  1379  2841-38-91      2   32   57   0.310  -0.290        0
  1380  2841-39-91      2   32   57   0.310  -0.290        0
  1381  2841-42-364     2   32   57   0.310  -0.290        0
  1382  2841-48-336     2   32   57   0.310  -0.290        0
  1383  2815-56-24      2   33   57   0.270  -0.360        0
  1384  2801-33-52      2   34   57  -0.080  -0.130        0
  1385  2844-43-6       2   32   59   0.280   0.270        0
  1386  2844-48-334     2   32   59   0.280   0.270        0
  1387  2844-56-19      2   32   59   0.280   0.270        0
  1388  2844-66-34      2   32   59   0.280   0.270        0
  1389  2844-71-61      2   32   59   0.280   0.270        0
  1390  2819-56-17      2   33   60   0.120  -0.440        0
  1391  2825-56-19      2   33   60  -0.260   0.470        0
  1392  2825-66-35      2   33   60  -0.260   0.470        0
  1393  2794-33-62      3   34   59   0.150  -0.310        0
  1394  2791-42-356     3   34   59   0.150  -0.340        0
  1395  2791-48-337     3   34   59   0.150  -0.340        0
  1396  2791-61-61      3   34   59   0.150  -0.340        0
  1397  2791-66-26      3   34   59   0.150  -0.340        0
  1398  2806-42-356    -2   34   60  -0.190  -0.240        0
  1399  2806-48-337    -2   34   60  -0.190  -0.240        0
  1400  2840-43-5       2   32   62   0.390   0.000        0
  1401  2840-48-334     2   32   62   0.390   0.000        0
  1402  2840-56-19      2   32   62   0.390   0.000        0
  1403  2840-61-56      2   32   62   0.390   0.000        0
  1404  2840-66-32      2   32   62   0.390   0.000        0
  1405  2827-66-32      2   33   61  -0.300   0.250        0
  1406  2827-71-61      2   33   61  -0.300   0.250        0
  1407  2813-66-26      2   33   61   0.350  -0.230        0
  1408  2813-71-323     2   33   61   0.350  -0.230        0
  1409  2814-42-357    -2   34   61  -0.310  -0.140        0
  1410  2814-55-342    -2   34   61  -0.310  -0.140        0
  1411  2814-61-35     -2   34   61  -0.310  -0.140        0
  1412  2814-66-26     -2   34   61  -0.310  -0.140        0
  1413  2804-42-357    -2   34   61  -0.350  -0.100        0
  1414  2804-55-342    -2   34   61  -0.350  -0.100        0
  1415  2804-61-35     -2   34   61  -0.350  -0.100        0
  1416  2804-66-26     -2   34   61  -0.350  -0.100        0
  1417  2812-42-335     3   33   62   0.350  -0.360        0
  1418  2812-48-355     3   33   62   0.350  -0.360        0
  1419  2812-55-342     3   33   62   0.350  -0.360        0
  1420  2812-61-35      3   33   62   0.350  -0.360        0
  1421  2812-71-323     3   33   62   0.350  -0.360        0
  1422  2765-42-357     2   35   61   0.180  -0.230        0
  1423  2765-48-355     2   35   61   0.180  -0.230        0
  1424  2765-55-342     2   35   61   0.180  -0.230        0
  1425  2765-61-35      2   35   61   0.180  -0.230        0
  1426  2765-66-26      2   35   61   0.180  -0.230        0
  1427  2765-71-323     2   35   61   0.180  -0.230        0
  1428  2728-8-69       2   36   59  -0.430   0.110        0
  1429  2719-42-357     2   36   59  -0.090  -0.020        0
  1430  2719-48-356     2   36   59  -0.090  -0.020        0
  1431  2719-55-343     2   36   59  -0.090  -0.020        0
  1432  2726-42-357     2   36   60  -0.390   0.440        0
  1433  2726-48-355     2   36   60  -0.390   0.440        0
  1434  2726-55-342     2   36   60  -0.390   0.440        0
  1435  2726-61-35      2   36   60  -0.390   0.440        0
  1436  2726-66-26      2   36   60  -0.390   0.440        0
  1437  2726-71-323     2   36   60  -0.390   0.440        0
  1438  2784-71-62      2   34   57   0.300  -0.490        0
  1439  2730-56-24      2   35   58   0.410  -0.350        0
  1440  2730-61-54      2   35   58   0.410  -0.350        0
  1441  2730-66-18      2   35   58   0.410  -0.350        0
  1442  2781-16-361     2   34   56   0.340   0.380        0
  1443  2782-17-7       2   34   56   0.300   0.020        0
  1444  2782-71-62      2   34   56   0.300   0.020        0
  1445  2762-48-338     2   35   56  -0.270   0.450        0
  1446  2785-56-23      2   34   56   0.420  -0.010        0
  1447  2785-66-19      2   34   56   0.420  -0.010        0
  1448  2757-56-24      2   35   56  -0.080   0.190        0
  1449  2757-66-19      2   35   56  -0.080   0.190        0
  1450  2763-56-24      2   35   55  -0.200   0.340        0
  1451  2763-66-19      2   35   55  -0.200   0.340        0
  1452  2729-56-24      2   36   55  -0.390   0.340        0
  1453  2729-66-18      2   36   55  -0.390   0.340        0
  1454  2720-16-298     2   36   56  -0.160  -0.140        0
  1455  2720-22-31      2   36   56  -0.160  -0.140        0
  1456  2706-66-35      2   36   56   0.140   0.450        0
  1457  2710-56-24      2   36   56   0.140   0.450        0
  1458  2755-56-23      2   35   53  -0.160  -0.220        0
  1459  2755-61-54      2   35   53  -0.160  -0.220        0
  1460  2755-66-18      2   35   53  -0.160  -0.220        0
  1461  2735-1-365      2   35   53   0.340  -0.390        0
  1462  2778-33-182     2   34   51   0.420  -0.200        0
  1463  2759-34-121     2   35   51  -0.080   0.250        0
  1464  2738-66-26      2   35   51   0.260   0.020        0
  1465  2738-71-348     2   35   51   0.260   0.020        0
  1466  2733-10-280     2   36   52  -0.430   0.190        0
  1467  2733-22-19      2   36   52  -0.430   0.190        0
  1468  2733-42-362     2   36   52  -0.430   0.190        0
  1469  2733-48-362     2   36   52  -0.430   0.190        0
  1470  2733-55-342     2   36   52  -0.430   0.190        0
  1471  2733-61-38      2   36   52  -0.430   0.190        0
  1472  2733-66-40      2   36   52  -0.430   0.190        0
  1473  2733-71-348     2   36   52  -0.430   0.190        0
  1474  2698-49-8       2   36   51   0.330   0.480        0
  1475  2698-55-342     2   36   51   0.330   0.480        0
  1476  2698-61-10      2   36   51   0.330   0.480        0
  1477  2698-71-348     2   36   51   0.330   0.480        0
  1478  2665-42-362    -2   38   51  -0.020  -0.170        0
  1479  2665-48-362    -2   38   51  -0.020  -0.170        0
  1480  2665-55-342    -2   38   51  -0.020  -0.170        0
  1481  2665-61-4      -2   38   51  -0.020  -0.170        0
  1482  2665-66-26     -2   38   51  -0.020  -0.170        0
  1483  2665-71-348    -2   38   51  -0.020  -0.170        0
  1484  2664-1-360      1   38   51  -0.180   0.380        0
  1485  2664-6-341      1   38   51  -0.180   0.380        0
  1486  2662-42-362     2   38   52   0.050   0.000        0
  1487  2662-48-361     2   38   52   0.050   0.000        0
  1488  2662-55-342     2   38   52   0.050   0.000        0
  1489  2662-71-348     2   38   52   0.050   0.000        0
  1490  2659-55-342     2   38   52   0.050   0.000        0
  1491  2659-61-11      2   38   52   0.050   0.000        0
  1492  2659-66-26      2   38   52   0.050   0.000        0
  1493  2659-71-348     2   38   52   0.050   0.000        0
  1494  2658-1-92       1   38   52   0.050   0.390        0
  1495  2742-17-3       2   36   54   0.370   0.500        0
  1496  2742-22-1       2   36   54   0.370   0.500        0
  1497  2742-38-91      2   36   54   0.370   0.500        0
  1498  2742-56-24      2   36   54   0.370   0.500        0
  1499  2742-61-54      2   36   54   0.370   0.500        0
  1500  2742-66-31      2   36   54   0.370   0.500        0
  1501  2742-71-62      2   36   54   0.370   0.500        0
  1502  2683-42-362     2   37   53   0.100  -0.290        0
  1503  2683-48-362     2   37   53   0.100  -0.290        0
  1504  2683-55-342     2   37   53   0.100  -0.290        0
  1505  2683-61-32      2   37   53   0.100  -0.290        0
  1506  2683-66-40      2   37   53   0.100  -0.290        0
  1507  2686-1-274      2   37   53  -0.130   0.460        0
  1508  2686-6-283      2   37   53  -0.130   0.460        0
  1509  2686-10-280     2   37   53  -0.130   0.460        0
  1510  2666-1-274      1   38   52  -0.440   0.130        0
  1511  2666-6-283      1   38   52  -0.440   0.130        0
  1512  2670-17-3       2   37   54   0.400   0.500        0
  1513  2670-22-31      2   37   54   0.400   0.500        0
  1514  2670-31-351     2   37   54   0.400   0.500        0
  1515  2670-36-50      2   37   54   0.400   0.500        0
  1516  2670-42-352     2   37   54   0.400   0.500        0
  1517  2670-56-24      2   37   54   0.400   0.500        0
  1518  2670-61-54      2   37   54   0.400   0.500        0
  1519  2670-66-33      2   37   54   0.400   0.500        0
  1520  2670-71-62      2   37   54   0.400   0.500        0
  1521  2703-36-244     2   36   60   0.220   0.470        0
  1522  2703-48-355     2   36   60   0.220   0.470        0
  1523  2703-55-343     2   36   60   0.220   0.470        0
  1524  2703-61-35      2   36   60   0.220   0.470        0
  1525  2703-66-19      2   36   60   0.220   0.470        0
  1526  2703-71-323     2   36   60   0.220   0.470        0
  1527  2680-71-61      2   37   60  -0.020  -0.230        0
  1528  2704-42-335     2   36   59   0.220   0.140        0
  1529  2704-48-356     2   36   59   0.220   0.140        0
  1530  2672-42-356     2   38   59  -0.330  -0.380        0
  1531  2672-66-33      2   38   59  -0.330  -0.380        0
  1532  2672-71-63      2   38   59  -0.330  -0.380        0
  1533  2657-42-356     2   38   60   0.170  -0.080        0
  1534  2657-66-33      2   38   60   0.170  -0.080        0
  1535  2685-42-356     2   37   61   0.170  -0.490        0
  1536  2685-48-355     2   37   61   0.170  -0.490        0
  1537  2685-55-343     2   37   61   0.170  -0.490        0
  1538  2685-61-35      2   37   61   0.170  -0.490        0
  1539  2685-66-26      2   37   61   0.170  -0.490        0
  1540  2685-71-323     2   37   61   0.170  -0.490        0
  1541  2983-16-361     2   27   66  -0.270   0.480        0
  1542  2983-22-31      2   27   66  -0.270   0.480        0
  1543  2983-27-11      2   27   66  -0.270   0.480        0
  1544  2980-43-8       2   27   66   0.030  -0.370        0
  1545  2980-48-334     2   27   66   0.030  -0.370        0
  1546  2980-56-24      2   27   66   0.030  -0.370        0
  1547  2990-16-361     2   26   64   0.420   0.500        0
  1548  2990-48-337     2   26   64   0.420   0.500        0
  1549  2990-56-24      2   26   64   0.420   0.500        0
  1550  2956-2-85       2   28   65   0.260  -0.110        0
  1551  2956-6-284      2   28   65   0.260  -0.110        0
  1552  2956-12-261     2   28   65   0.260  -0.110        0
  1553  2956-16-133     2   28   65   0.260  -0.110        0
  1554  2956-26-124     2   28   65   0.260  -0.110        0
  1555  2956-37-34      2   28   65   0.260  -0.110        0
  1556  2956-43-5       2   28   65   0.260  -0.110        0
  1557  2956-48-334     2   28   65   0.260  -0.110        0
  1558  2956-56-27      2   28   65   0.260  -0.110        0
  1559  2956-66-35      2   28   65   0.260  -0.110        0
  1560  2956-71-12      2   28   65   0.260  -0.110        0
  1561  2956-71-365     2   28   65   0.260  -0.110        0
  1562  2931-11-62      2   29   63   0.210   0.430        0
  1563  2931-16-361     2   29   63   0.210   0.430        0
  1564  2931-22-31      2   29   63   0.210   0.430        0
  1565  2635-56-25      3   38   20   0.500   0.290        0
  1566  2595-16-355     3   40   19   0.440   0.310        0
  1567  2595-48-349     3   40   19   0.440   0.310        0
  1568  2595-55-355     3   40   19   0.440   0.310        0
  1569  2595-61-4       3   40   19   0.440   0.310        0
  1570  2595-66-47      3   40   19   0.440   0.310        0
  1571  2595-71-5       3   40   19   0.440   0.310        0
  1572  2595-71-365     3   40   19   0.440   0.310        0
  1573  2594-48-350    -2   40   21   0.410  -0.300        0
  1574  2594-55-355    -2   40   21   0.410  -0.300        0
  1575  2594-66-47     -2   40   21   0.410  -0.300        0
  1576  2594-71-5      -2   40   21   0.410  -0.300        0
  1577  2594-71-365    -2   40   21   0.410  -0.300        0
  1578  2599-66-47      2   40   20   0.260   0.310        0
  1579  2599-71-5       2   40   20   0.260   0.310        0
  1580  2599-71-365     2   40   20   0.260   0.310        0
  1581  2596-42-351    -2   40   18   0.400   0.360        0
  1582  2596-48-349    -2   40   18   0.400   0.360        0
  1583  2596-55-355    -2   40   18   0.400   0.360        0
  1584  2596-61-4      -2   40   18   0.400   0.360        0
  1585  2596-66-34     -2   40   18   0.400   0.360        0
  1586  2596-71-5       3   40   18   0.400   0.360        0
  1587  2596-71-365     3   40   18   0.400   0.360        0
  1588  2591-56-3       3   40   18   0.330   0.330        0
  1589  2591-61-4       3   40   18   0.330   0.330        0
  1590  2591-66-34      3   40   18   0.330   0.330        0
  1591  2591-71-5       3   40   18   0.330   0.330        0
  1592  2591-71-365     3   40   18   0.330   0.330        0
  1593  2588-42-351     3   40   16   0.470   0.120        0
  1594  2588-48-349     3   40   16   0.470   0.120        0
  1595  2588-55-355     3   40   16   0.470   0.120        0
  1596  2588-61-4       3   40   16   0.470   0.120        0
  1597  2588-66-47      3   40   16   0.470   0.120        0
  1598  2588-71-4       3   40   16   0.470   0.120        0
  1599  2588-71-365     3   40   16   0.470   0.120        0
  1600  2564-12-171     3   41   18   0.090   0.390        0
  1601  2564-16-355     3   41   18   0.090   0.390        0
  1602  2564-22-37      3   41   18   0.090   0.390        0
  1603  2530-42-351    -2   42   18   0.350   0.260        0
  1604  2530-48-349    -2   42   18   0.350   0.260        0
  1605  2530-55-355    -2   42   18   0.350   0.260        0
  1606  2530-61-6      -2   42   18   0.350   0.260        0
  1607  2530-66-47     -2   42   18   0.350   0.260        0
  1608  2530-71-5       3   42   18   0.350   0.260        0
  1609  2530-71-365     3   42   18   0.350   0.260        0
  1610  2529-17-6       3   42   20   0.440   0.370        0
  1611  2529-56-24      3   42   20   0.440   0.370        0
  1612  2529-61-52      3   42   20   0.440   0.370        0
  1613  2529-66-19      3   42   20   0.440   0.370        0
  1614  2587-1-105      2   40   21   0.490  -0.360        0
  1615  2587-7-3        2   40   21   0.490  -0.360        0
  1616  2449-32-85      2   44   25   0.360   0.310        0
  1617  2492-48-349    -2   43   22   0.400   0.420        0
  1618  2492-61-4      -2   43   22   0.400   0.420        0
  1619  2492-66-39     -2   43   22   0.400   0.420        0
  1620  2492-71-6       3   43   22   0.400   0.420        0
  1621  2492-71-365     3   43   22   0.400   0.420        0
  1622  2491-56-3       3   43   23   0.400  -0.260        0
  1623  2491-61-6       3   43   23   0.400  -0.260        0
  1624  2491-66-39      3   43   23   0.400  -0.260        0
  1625  2491-71-6       3   43   23   0.400  -0.260        0
  1626  2491-71-365     3   43   23   0.400  -0.260        0
  1627  2450-48-349    -2   44   23   0.430   0.160        0
  1628  2450-55-354    -2   44   23   0.430   0.160        0
  1629  2450-61-4      -2   44   23   0.430   0.160        0
  1630  2450-66-39     -2   44   23   0.430   0.160        0
  1631  2450-71-6       2   44   23   0.430   0.160        0
  1632  2450-71-365     2   44   23   0.430   0.160        0
  1633  2451-48-349    -2   44   22   0.430   0.380        0
  1634  2451-55-355    -2   44   22   0.430   0.380        0
  1635  2451-61-4      -2   44   22   0.430   0.380        0
  1636  2451-66-27     -2   44   22   0.430   0.380        0
  1637  2451-71-6       3   44   22   0.430   0.380        0
  1638  2451-71-365     3   44   22   0.430   0.380        0
  1639  2442-48-348     3   44   20   0.430  -0.220        0
  1640  2442-56-23      3   44   20   0.430  -0.220        0
  1641  2442-60-319     3   44   20   0.430  -0.220        0
  1642  2442-66-26      3   44   20   0.430  -0.220        0
  1643  2442-71-11      3   44   20   0.430  -0.220        0
  1644  2452-12-171     3   44   20   0.430   0.330        0
  1645  2452-16-314     3   44   20   0.430   0.330        0
  1646  2452-32-85      3   44   20   0.430   0.330        0
  1647  2452-35-53      3   44   20   0.430   0.330        0
  1648  2390-42-351     3   45   17   0.260  -0.050        0
  1649  2390-48-349     3   45   17   0.260  -0.050        0
  1650  2390-55-355     3   45   17   0.260  -0.050        0
  1651  2390-66-47      3   45   17   0.260  -0.050        0
  1652  2390-71-6       3   45   17   0.260  -0.050        0
  1653  2390-71-365     3   45   17   0.260  -0.050        0
  1654  2303-42-351    -2   46   17   0.370  -0.050        0
  1655  2303-48-349    -2   46   17   0.370  -0.050        0
  1656  2303-55-355    -2   46   17   0.370  -0.050        0
  1657  2303-61-4      -2   46   17   0.370  -0.050        0
  1658  2303-66-47     -2   46   17   0.370  -0.050        0
  1659  2303-71-6       3   46   17   0.370  -0.050        0
  1660  2303-71-365     3   46   17   0.370  -0.050        0
  1661  2417-56-24      3   45   20   0.000  -0.190        0
  1662  2417-61-54      3   45   20   0.000  -0.190        0
  1663  2411-56-24      3   45   20   0.040  -0.190        0
  1664  2411-61-54      3   45   20   0.040  -0.190        0
  1665  2259-42-352     3   46   21   0.490  -0.280        0
  1666  2259-56-3       3   46   21   0.490  -0.280        0
  1667  2296-22-38     -2   46   21   0.420   0.370        0
  1668  2296-42-352    -2   46   21   0.420   0.370        0
  1669  2296-48-350    -2   46   21   0.420   0.370        0
  1670  2296-55-354    -2   46   21   0.420   0.370        0
  1671  2296-61-6      -2   46   21   0.420   0.370        0
  1672  2296-66-39     -2   46   21   0.420   0.370        0
  1673  2296-71-6       3   46   21   0.420   0.370        0
  1674  2296-71-365     3   46   21   0.420   0.370        0
  1675  2302-48-350    -2   46   22   0.460   0.380        0
  1676  2302-55-354    -2   46   22   0.460   0.380        0
  1677  2302-61-6      -2   46   22   0.460   0.380        0
  1678  2302-66-32     -2   46   22   0.460   0.380        0
  1679  2302-71-6       3   46   22   0.460   0.380        0
  1680  2302-71-365     3   46   22   0.460   0.380        0
  1681  2301-37-33     -2   46   23   0.460   0.350        0
  1682  2301-42-352    -2   46   23   0.460   0.350        0
  1683  2301-48-349    -2   46   23   0.460   0.350        0
  1684  2301-55-354    -2   46   23   0.460   0.350        0
  1685  2301-66-1      -2   46   23   0.460   0.350        0
  1686  2301-71-6      -2   46   23   0.460   0.350        0
  1687  2301-71-365    -2   46   23   0.460   0.350        0
  1688  2440-55-354     3   44   25   0.480   0.370        0
  1689  2440-61-6       3   44   25   0.480   0.370        0
  1690  2440-65-342     3   44   25   0.480   0.370        0
  1691  2440-71-6       3   44   25   0.480   0.370        0
  1692  2440-71-365     3   44   25   0.480   0.370        0
  1693  2300-16-354    -2   46   25   0.280   0.370        0
  1694  2300-48-350    -2   46   25   0.280   0.370        0
  1695  2300-55-355    -2   46   25   0.280   0.370        0
  1696  2300-61-6      -2   46   25   0.280   0.370        0
  1697  2300-65-341    -2   46   25   0.280   0.370        0
  1698  2300-71-7      -2   46   25   0.280   0.370        0
  1699  2300-71-365     2   46   25   0.280   0.370        0
  1700  2220-12-311    -2   47   26   0.390  -0.250        0
  1701  2220-16-356    -2   47   26   0.390  -0.250        0
  1702  2220-48-350    -2   47   26   0.390  -0.250        0
  1703  2220-55-354    -2   47   26   0.390  -0.250        0
  1704  2220-61-7      -2   47   26   0.390  -0.250        0
  1705  2220-66-39     -2   47   26   0.390  -0.250        0
  1706  2220-71-7      -2   47   26   0.390  -0.250        0
  1707  2220-71-365     3   47   26   0.390  -0.250        0
  1708  2222-55-354    -2   47   25   0.390   0.070        0
  1709  2222-61-6      -2   47   25   0.390   0.070        0
  1710  2222-65-341    -2   47   25   0.390   0.070        0
  1711  2222-71-7      -2   47   25   0.390   0.070        0
  1712  2222-71-365     3   47   25   0.390   0.070        0
  1713  2096-48-350    -2   48   25   0.310   0.360        0
  1714  2096-55-354    -2   48   25   0.310   0.360        0
  1715  2096-61-6      -2   48   25   0.310   0.360        0
  1716  2096-65-343    -2   48   25   0.310   0.360        0
  1717  2096-71-7      -2   48   25   0.310   0.360        0
  1718  2096-71-365     3   48   25   0.310   0.360        0
  1719  2089-12-171    -2   48   23   0.410  -0.170        0
  1720  2089-42-352    -2   48   23   0.410  -0.170        0
  1721  2089-48-350    -2   48   23   0.410  -0.170        0
  1722  2089-55-354    -2   48   23   0.410  -0.170        0
  1723  2089-61-6      -2   48   23   0.410  -0.170        0
  1724  2089-66-55     -2   48   23   0.410  -0.170        0
  1725  2089-71-6       3   48   23   0.410  -0.170        0
  1726  2089-71-365     3   48   23   0.410  -0.170        0
  1727  2088-42-352    -2   48   24   0.420  -0.200        0
  1728  2088-48-350    -2   48   24   0.420  -0.200        0
  1729  2088-55-354    -2   48   24   0.420  -0.200        0
  1730  2088-61-6      -2   48   24   0.420  -0.200        0
  1731  2088-66-48     -2   48   24   0.420  -0.200        0
  1732  2088-71-6       3   48   24   0.420  -0.200        0
  1733  2088-71-365     3   48   24   0.420  -0.200        0
  1734  2620-61-53      3   40   33  -0.480  -0.430        0
  1735  2620-66-28      3   40   33  -0.480  -0.430        0
  1736  2630-1-86       3   39   33  -0.280  -0.500        0
  1737  2615-21-353     2   40   32  -0.360   0.240        0
  1738  2615-27-20      2   40   32  -0.360   0.240        0
  1739  2615-36-64      2   40   32  -0.360   0.240        0
  1740  2615-42-350     2   40   32  -0.360   0.240        0
  1741  2618-56-23      2   40   32  -0.440   0.310        0
  1742  2618-61-53      2   40   32  -0.440   0.310        0
  1743  2618-66-28      2   40   32  -0.440   0.310        0
  1744  2616-1-109      2   40   32  -0.370  -0.080        0
  1745  2616-7-10       3   40   32  -0.370  -0.080        0
  1746  2616-10-319     3   40   32  -0.370  -0.080        0
  1747  2607-56-23      3   40   32  -0.020  -0.440        0
  1748  2607-61-53      3   40   32  -0.020  -0.440        0
  1749  2607-66-28      3   40   32  -0.020  -0.440        0
  1750  2578-2-305      2   41   28  -0.300   0.180        0
  1751  2582-1-105      2   41   30  -0.370   0.260        0
  1752  2577-56-23      3   41   30  -0.300   0.060        0
  1753  2577-61-53      3   41   30  -0.300   0.060        0
  1754  2577-66-28      3   41   30  -0.300   0.060        0
  1755  2573-56-27      3   41   30  -0.140   0.350        0
  1756  2553-33-188     3   41   29   0.460  -0.400        0
  1757  2553-56-27      3   41   29   0.460  -0.400        0
  1758  2574-1-107      2   41   32  -0.220   0.430        0
  1759  2580-1-109      3   41   33  -0.330  -0.270        0
  1760  2571-21-354     3   41   33  -0.100  -0.370        0
  1761  2498-37-34      2   43   32   0.270   0.170        0
  1762  2498-42-350     2   43   32   0.270   0.170        0
  1763  2519-56-23      3   43   31  -0.340  -0.100        0
  1764  2507-48-300     3   43   28  -0.010   0.460        0
  1765  2507-55-318     3   43   28  -0.010   0.460        0
  1766  2507-60-313     3   43   28  -0.010   0.460        0
  1767  2507-65-364     3   43   28  -0.010   0.460        0
  1768  2507-71-350     3   43   28  -0.010   0.460        0
  1769  2508-48-300     3   43   28  -0.010   0.460        0
  1770  2508-55-318     3   43   28  -0.010   0.460        0
  1771  2508-60-313     3   43   28  -0.010   0.460        0
  1772  2508-65-364     3   43   28  -0.010   0.460        0
  1773  2508-71-350     3   43   28  -0.010   0.460        0
  1774  2448-56-25      2   44   28   0.410   0.170        0
  1775  2448-61-52      2   44   28   0.410   0.170        0
  1776  2448-66-20      2   44   28   0.410   0.170        0
  1777  2311-56-23      3   46   29   0.400   0.430        0
  1778  2311-61-53      3   46   29   0.400   0.430        0
  1779  2311-66-28      3   46   29   0.400   0.430        0
  1780  2084-2-305      2   48   29   0.470  -0.350        0
  1781  2099-42-352    -2   48   27   0.390  -0.470        0
  1782  2099-48-365    -2   48   27   0.390  -0.470        0
  1783  2099-55-354    -2   48   27   0.390  -0.470        0
  1784  2099-61-7      -2   48   27   0.390  -0.470        0
  1785  2099-65-344    -2   48   27   0.390  -0.470        0
  1786  2099-71-365    -2   48   27   0.390  -0.470        0
  1787  2087-71-365     2   48   27   0.420  -0.470        0
  1788  2110-71-365     3   48   28   0.270  -0.430        0
  1789  2040-65-364     2   49   28   0.000  -0.140        0
  1790  2040-71-365     2   49   28   0.000  -0.140        0
  1791  2034-65-364     3   49   28   0.040  -0.100        0
  1792  2034-71-12      3   49   28   0.040  -0.100        0
  1793  2034-71-365     3   49   28   0.040  -0.100        0
  1794  2009-71-8       3   49   28   0.380  -0.460        0
  1795  2009-71-365     3   49   28   0.380  -0.460        0
  1796  2008-71-8       3   49   26   0.420   0.460        0
  1797  2008-71-365     3   49   26   0.420   0.460        0
  1798  1923-16-315    -2   50   26   0.410   0.400        0
  1799  1923-22-38     -2   50   26   0.410   0.400        0
  1800  1923-27-24     -2   50   26   0.410   0.400        0
  1801  1923-32-85     -2   50   26   0.410   0.400        0
  1802  1923-36-1      -2   50   26   0.410   0.400        0
  1803  1923-42-352    -2   50   26   0.410   0.400        0
  1804  1923-48-348    -2   50   26   0.410   0.400        0
  1805  1923-55-354    -2   50   26   0.410   0.400        0
  1806  1923-60-323    -2   50   26   0.410   0.400        0
  1807  1923-65-343    -2   50   26   0.410   0.400        0
  1808  1923-71-8      -2   50   26   0.410   0.400        0
  1809  1923-71-365    -2   50   26   0.410   0.400        0
  1810  1914-55-354     2   50   26   0.410   0.460        0
  1811  1914-61-7       2   50   26   0.410   0.460        0
  1812  1914-71-8       2   50   26   0.410   0.460        0
  1813  1919-71-8       3   50   26   0.370   0.430        0
  1814  1914-71-365     2   50   26   0.410   0.460        0
  1815  1919-71-365     3   50   26   0.370   0.430        0
  1816  1938-65-364     2   50   27   0.110   0.180        0
  1817  1960-65-364     2   50   27  -0.010   0.020        0
  1818  1922-12-171    -2   50   27   0.340   0.340        0
  1819  1922-42-352    -2   50   27   0.340   0.340        0
  1820  1922-48-349    -2   50   27   0.340   0.340        0
  1821  1922-55-354    -2   50   27   0.340   0.340        0
  1822  1922-61-7      -2   50   27   0.340   0.340        0
  1823  1922-71-8      -2   50   27   0.340   0.340        0
  1824  1922-71-365     2   50   27   0.340   0.340        0
  1825  1918-10-108     2   50   27   0.300   0.410        0
  1826  1918-66-32      2   50   27   0.300   0.410        0
  1827  1918-71-8       2   50   27   0.300   0.410        0
  1828  1918-71-365     2   50   27   0.300   0.410        0
  1829  1959-71-8       3   50   28   0.000  -0.170        0
  1830  1959-71-365     3   50   28   0.000  -0.170        0
  1831  1944-71-365     2   50   28   0.070  -0.200        0
  1832  1988-35-4      -2   50   32  -0.380   0.320        0
  1833  1908-56-18      2   50   32   0.430   0.480        0
  1834  1908-66-18      2   50   32   0.430   0.480        0
  1835  2638-33-46      2   38   50   0.170  -0.150        0
  1836  2648-35-95     -2   38   49   0.280  -0.030        0
  1837  2627-48-336    -2   39   50  -0.070  -0.410        0
  1838  2619-2-1       -2   40   50  -0.460   0.270        0
  1839  2642-12-43      1   38   48   0.320   0.290        0
  1840  2649-17-23     -2   38   48   0.280   0.360        0
  1841  2649-22-20     -2   38   48   0.280   0.360        0
  1842  2649-42-363    -2   38   48   0.280   0.360        0
  1843  2649-48-336    -2   38   48   0.280   0.360        0
  1844  2649-56-20     -2   38   48   0.280   0.360        0
  1845  2649-61-55     -2   38   48   0.280   0.360        0
  1846  2628-1-365      1   39   48  -0.110  -0.160        0
  1847  2650-71-350     2   38   47   0.200   0.120        0
  1848  2655-42-362     2   38   47   0.160   0.120        0
  1849  2655-48-362     2   38   47   0.160   0.120        0
  1850  2655-55-343     2   38   47   0.160   0.120        0
  1851  2655-61-40      2   38   47   0.160   0.120        0
  1852  2655-66-55      2   38   47   0.160   0.120        0
  1853  2655-71-350     2   38   47   0.160   0.120        0
  1854  2604-61-55      1   40   48   0.120  -0.460        0
  1855  2626-22-20     -3   39   49   0.200  -0.380        0
  1856  2626-32-42     -3   39   49   0.200  -0.380        0
  1857  2623-8-279      1   39   48   0.280   0.260        0
  1858  2623-12-32      1   39   48   0.280   0.260        0
  1859  2623-17-22      1   39   48   0.280   0.260        0
  1860  2623-22-1       1   39   48   0.280   0.260        0
  1861  2623-27-34      1   39   48   0.280   0.260        0
  1862  2608-12-43      2   40   48  -0.040   0.290        0
  1863  2608-17-23      2   40   48  -0.040   0.290        0
  1864  2608-22-20      2   40   48  -0.040   0.290        0
  1865  2608-32-42      2   40   48  -0.040   0.290        0
  1866  2629-3-217      1   39   46  -0.110  -0.110        0
  1867  2606-56-26      3   40   46   0.120   0.440        0
  1868  2606-61-55      3   40   46   0.120   0.440        0
  1869  2606-66-20      3   40   46   0.120   0.440        0
  1870  2592-12-43     -2   40   50   0.390   0.340        0
  1871  2592-17-23     -2   40   50   0.390   0.340        0
  1872  2592-22-23     -2   40   50   0.390   0.340        0
  1873  2592-42-364    -2   40   50   0.390   0.340        0
  1874  2592-48-336    -2   40   50   0.390   0.340        0
  1875  2592-56-20     -2   40   50   0.390   0.340        0
  1876  2592-61-55     -2   40   50   0.390   0.340        0
  1877  2603-27-15     -2   40   50   0.160   0.010        0
  1878  2603-42-362    -2   40   50   0.160   0.010        0
  1879  2603-48-336    -2   40   50   0.160   0.010        0
  1880  2603-55-343    -2   40   50   0.160   0.010        0
  1881  2603-61-40     -2   40   50   0.160   0.010        0
  1882  2603-65-343    -2   40   50   0.160   0.010        0
  1883  2603-71-47     -2   40   50   0.160   0.010        0
  1884  2603-71-350    -2   40   50   0.160   0.010        0
  1885  2593-1-365      1   40   49   0.390   0.390        0
  1886  2558-22-23     -2   41   50   0.300  -0.440        0
  1887  2558-27-35     -2   41   50   0.300  -0.440        0
  1888  2558-42-362    -2   41   50   0.300  -0.440        0
  1889  2558-48-362    -2   41   50   0.300  -0.440        0
  1890  2558-55-343    -2   41   50   0.300  -0.440        0
  1891  2558-61-40     -2   41   50   0.300  -0.440        0
  1892  2651-42-356     2   38   61   0.250  -0.490        0
  1893  2632-66-33      2   39   61  -0.370  -0.400        0
  1894  2632-71-63      2   39   61  -0.370  -0.400        0
  1895  2644-48-345     2   38   60   0.280   0.250        0
  1896  2644-71-63      2   38   60   0.280   0.250        0
  1897  2645-42-356     2   38   59   0.320  -0.380        0
  1898  2645-48-345     2   38   59   0.320  -0.380        0
  1899  2645-66-33      2   38   59   0.320  -0.380        0
  1900  2645-71-63      2   38   59   0.320  -0.380        0
  1901  2624-71-63      2   39   59   0.240   0.110        0
  1902  2609-42-365    -2   40   58  -0.110  -0.190        0
  1903  2609-48-338    -2   40   58  -0.110  -0.190        0
  1904  2609-56-24     -2   40   58  -0.110  -0.190        0
  1905  2609-61-54     -2   40   58  -0.110  -0.190        0
  1906  2609-66-26     -2   40   58  -0.110  -0.190        0
  1907  2609-71-62     -2   40   58  -0.110  -0.190        0
  1908  2631-56-24      1   39   53  -0.180  -0.390        0
  1909  2631-61-54      1   39   53  -0.180  -0.390        0
  1910  2631-66-33      1   39   53  -0.180  -0.390        0
  1911  2652-17-24     -2   38   53   0.240  -0.480        0
  1912  2652-22-19     -2   38   53   0.240  -0.480        0
  1913  2652-27-33     -2   38   53   0.240  -0.480        0
  1914  2652-42-362    -2   38   53   0.240  -0.480        0
  1915  2634-66-19      1   39   51  -0.410   0.250        0
  1916  2633-56-23      1   39   52  -0.410  -0.490        0
  1917  2647-1-51       1   38   51   0.280  -0.270        0
  1918  2613-56-26     -2   40   52  -0.070  -0.430        0
  1919  2622-11-34     -2   39   52   0.320   0.480        0
  1920  2622-17-3      -2   39   52   0.320   0.480        0
  1921  2622-22-25     -2   39   52   0.320   0.480        0
  1922  2622-27-11     -2   39   52   0.320   0.480        0
  1923  2622-32-46     -2   39   52   0.320   0.480        0
  1924  2625-42-362    -2   39   53   0.240  -0.490        0
  1925  2605-42-362     2   40   52   0.000   0.480        0
  1926  2605-48-362     2   40   52   0.000   0.480        0
  1927  2605-55-343     2   40   52   0.000   0.480        0
  1928  2605-61-38      2   40   52   0.000   0.480        0
  1929  2605-66-49      2   40   52   0.000   0.480        0
  1930  2605-71-40      2   40   52   0.000   0.480        0
  1931  2605-71-350     2   40   52   0.000   0.480        0
  1932  2570-8-37       1   40   52   0.040   0.220        0
  1933  2570-12-46      1   40   52   0.040   0.220        0
  1934  2570-17-24      1   40   52   0.040   0.220        0
  1935  2570-22-25      1   40   52   0.040   0.220        0
  1936  2560-22-25     -3   41   51   0.270   0.470        0
  1937  2560-27-34     -3   41   51   0.270   0.470        0
  1938  2560-32-36     -3   41   51   0.270   0.470        0
  1939  2560-42-363    -3   41   51   0.270   0.470        0
  1940  2545-56-20      2   42   51  -0.040   0.380        0
  1941  2544-1-50       1   42   52  -0.010   0.250        0
  1942  2544-6-39       1   42   52  -0.010   0.250        0
  1943  2576-16-25      1   41   55  -0.270  -0.440        0
  1944  2576-22-25      1   41   55  -0.270  -0.440        0
  1945  2576-26-28      1   41   55  -0.270  -0.440        0
  1946  2581-66-26      2   41   55  -0.340  -0.440        0
  1947  2581-71-62      2   41   55  -0.340  -0.440        0
  1948  2600-17-24     -2   40   54   0.230  -0.450        0
  1949  2600-22-25     -2   40   54   0.230  -0.450        0
  1950  2600-27-54     -2   40   54   0.230  -0.450        0
  1951  2600-32-36     -2   40   54   0.230  -0.450        0
  1952  2600-38-32     -2   40   54   0.230  -0.450        0
  1953  2600-39-32     -2   40   54   0.230  -0.450        0
  1954  2600-48-362    -2   40   54   0.230  -0.450        0
  1955  2600-55-343    -2   40   54   0.230  -0.450        0
  1956  2600-61-40     -2   40   54   0.230  -0.450        0
  1957  2600-66-49     -2   40   54   0.230  -0.450        0
  1958  2600-71-40     -2   40   54   0.230  -0.450        0
  1959  2600-71-350    -2   40   54   0.230  -0.450        0
  1960  2566-66-26      2   41   53   0.110   0.360        0
  1961  2562-48-335    -2   41   53   0.150   0.260        0
  1962  2562-56-25     -2   41   53   0.150   0.260        0
  1963  2543-1-2        1   42   53   0.030  -0.290        0
  1964  2546-7-316      1   42   54   0.070  -0.410        0
  1965  2546-12-46      1   42   54   0.070  -0.410        0
  1966  2546-17-33      1   42   54   0.070  -0.410        0
  1967  2546-22-25      1   42   54   0.070  -0.410        0
  1968  2546-27-11      1   42   54   0.070  -0.410        0
  1969  2546-32-46      1   42   54   0.070  -0.410        0
  1970  2546-38-46      1   42   54   0.070  -0.410        0
  1971  2546-39-32      1   42   54   0.070  -0.410        0
  1972  2546-56-25      1   42   54   0.070  -0.410        0
  1973  2541-17-3       2   42   54   0.190  -0.380        0
  1974  2541-27-11      2   42   54   0.190  -0.380        0
  1975  2548-42-362     2   42   54  -0.230  -0.320        0
  1976  2548-48-362     2   42   54  -0.230  -0.320        0
  1977  2548-55-347     2   42   54  -0.230  -0.320        0
  1978  2548-60-362     2   42   54  -0.230  -0.320        0
  1979  2547-66-48      1   42   54  -0.230  -0.220        0
  1980  2547-71-12      1   42   54  -0.230  -0.220        0
  1981  2547-71-350     1   42   54  -0.230  -0.220        0
  1982  2551-42-352    -2   42   55  -0.350  -0.440        0
  1983  2551-56-24     -2   42   55  -0.350  -0.440        0
  1984  2551-66-26     -2   42   55  -0.350  -0.440        0
  1985  2550-42-362     1   42   56  -0.390  -0.460        0
  1986  2550-56-24      1   42   56  -0.390  -0.460        0
  1987  2550-61-54      1   42   56  -0.390  -0.460        0
  1988  2550-66-26      1   42   56  -0.390  -0.460        0
  1989  2542-22-25     -2   42   56   0.000  -0.460        0
  1990  2542-27-54     -2   42   56   0.000  -0.460        0
  1991  2542-66-26     -2   42   56   0.000  -0.460        0
  1992  2552-56-24      2   42   56  -0.460   0.410        0
  1993  2552-61-54      2   42   56  -0.460   0.410        0
  1994  2552-66-33      2   42   56  -0.460   0.410        0
  1995  2552-71-62      2   42   56  -0.460   0.410        0
  1996  2598-1-274      1   40   57   0.310   0.490        0
  1997  2598-6-284      1   40   57   0.310   0.490        0
  1998  2598-11-62      1   40   57   0.310   0.490        0
  1999  2584-12-325     2   41   59  -0.380  -0.410        0
  2000  2584-17-3       2   41   59  -0.380  -0.410        0
  2001  2584-22-31      2   41   59  -0.380  -0.410        0
  2002  2584-27-11      2   41   59  -0.380  -0.410        0
  2003  2540-48-357     2   42   60   0.190   0.050        0
  2004  2540-55-343     2   42   60   0.190   0.050        0
  2005  2540-61-38      2   42   60   0.190   0.050        0
  2006  2540-66-59      2   42   60   0.190   0.050        0
  2007  2540-71-40      2   42   60   0.190   0.050        0
  2008  2540-71-365     2   42   60   0.190   0.050        0
  2009  2597-42-335     2   40   62   0.350  -0.160        0
  2010  2597-48-357     2   40   62   0.350  -0.160        0
  2011  2597-55-343     2   40   62   0.350  -0.160        0
  2012  2597-61-38      2   40   62   0.350  -0.160        0
  2013  2597-66-59      2   40   62   0.350  -0.160        0
  2014  2597-71-40      2   40   62   0.350  -0.160        0
  2015  2597-71-365     2   40   62   0.350  -0.160        0
  2016  2565-48-342     2   41   62   0.080   0.000        0
  2017  2575-55-343     2   41   61  -0.230   0.450        0
  2018  2539-11-34      2   42   61   0.190  -0.170        0
  2019  2539-22-79      2   42   61   0.190  -0.170        0
  2020  2539-32-46      2   42   61   0.190  -0.170        0
  2021  2539-37-34      2   42   61   0.190  -0.170        0
  2022  2539-48-337     2   42   61   0.190  -0.170        0
  2023  2539-60-321     2   42   61   0.190  -0.170        0
  2024  2539-65-299     2   42   61   0.190  -0.170        0
  2025  2539-71-13      2   42   61   0.190  -0.170        0
  2026  2539-71-365     2   42   61   0.190  -0.170        0
  2027  2478-61-31      2   44   61  -0.210   0.130        0
  2028  2478-66-1       2   44   61  -0.210   0.130        0
  2029  2478-71-41      2   44   61  -0.210   0.130        0
  2030  2478-71-365     2   44   61  -0.210   0.130        0
  2031  2474-16-298     1   44   62  -0.090   0.070        0
  2032  2474-22-32      1   44   62  -0.090   0.070        0
  2033  2474-27-10      1   44   62  -0.090   0.070        0
  2034  2531-42-362     2   42   60   0.380  -0.210        0
  2035  2531-48-357     2   42   60   0.380  -0.210        0
  2036  2531-55-343     2   42   60   0.380  -0.210        0
  2037  2531-61-38      2   42   60   0.380  -0.210        0
  2038  2531-66-59      2   42   60   0.380  -0.210        0
  2039  2531-71-40      2   42   60   0.380  -0.210        0
  2040  2531-71-365     2   42   60   0.380  -0.210        0
  2041  2504-71-63      2   43   60   0.110   0.120        0
  2042  2520-71-62      2   43   59  -0.390   0.140        0
  2043  2482-42-362    -2   44   60  -0.360  -0.500        0
  2044  2482-48-362    -2   44   60  -0.360  -0.500        0
  2045  2482-55-343    -2   44   60  -0.360  -0.500        0
  2046  2482-61-40     -2   44   60  -0.360  -0.500        0
  2047  2482-66-45     -2   44   60  -0.360  -0.500        0
  2048  2482-71-26     -2   44   60  -0.360  -0.500        0
  2049  2482-71-365    -2   44   60  -0.360  -0.500        0
  2050  2470-55-343     2   44   60  -0.010   0.050        0
  2051  2470-66-45      2   44   60  -0.010   0.050        0
  2052  2470-71-41      2   44   60  -0.010   0.050        0
  2053  2470-71-365     2   44   60  -0.010   0.050        0
  2054  2473-55-343     2   44   60  -0.010   0.050        0
  2055  2476-48-362     2   44   60   0.060   0.090        0
  2056  2476-55-343     2   44   60   0.060   0.090        0
  2057  2476-61-32      2   44   60   0.060   0.090        0
  2058  2476-66-45      2   44   60   0.060   0.090        0
  2059  2476-71-41      2   44   60   0.060   0.090        0
  2060  2476-71-365     2   44   60   0.060   0.090        0
  2061  2523-37-1       1   43   58  -0.430  -0.090        0
  2062  2512-71-62      2   43   58  -0.010  -0.190        0
  2063  2513-17-24      1   43   57  -0.010   0.030        0
  2064  2513-22-25      1   43   57  -0.010   0.030        0
  2065  2513-26-362     1   43   57  -0.010   0.030        0
  2066  2487-42-355     2   44   57  -0.470   0.450        0
  2067  2467-12-46      1   44   57   0.060  -0.030        0
  2068  2467-17-3       1   44   57   0.060  -0.030        0
  2069  2467-22-25      1   44   57   0.060  -0.030        0
  2070  2467-27-54      1   44   57   0.060  -0.030        0
  2071  2467-32-46      1   44   57   0.060  -0.030        0
  2072  2467-38-32      1   44   57   0.060  -0.030        0
  2073  2466-2-128      2   44   57   0.060   0.450        0
  2074  2496-42-335     2   43   58   0.300   0.490        0
  2075  2496-48-362     2   43   58   0.300   0.490        0
  2076  2496-55-343     2   43   58   0.300   0.490        0
  2077  2496-61-32      2   43   58   0.300   0.490        0
  2078  2496-66-45      2   43   58   0.300   0.490        0
  2079  2496-71-40      2   43   58   0.300   0.490        0
  2080  2496-71-365     2   43   58   0.300   0.490        0
  2081  2486-42-362     2   44   58  -0.320   0.270        0
  2082  2486-48-362     2   44   58  -0.320   0.270        0
  2083  2486-55-343     2   44   58  -0.320   0.270        0
  2084  2486-60-344     2   44   58  -0.320   0.270        0
  2085  2486-66-45      2   44   58  -0.320   0.270        0
  2086  2486-71-26      2   44   58  -0.320   0.270        0
  2087  2486-71-365     2   44   58  -0.320   0.270        0
  2088  2499-33-95     -2   43   58   0.370  -0.380        0
  2089  2493-66-33      2   43   58   0.340  -0.160        0
  2090  2490-66-45      2   43   58   0.450  -0.420        0
  2091  2490-71-26      2   43   58   0.450  -0.420        0
  2092  2490-71-365     2   43   58   0.450  -0.420        0
  2093  2538-17-24     -2   42   57   0.230  -0.460        0
  2094  2538-22-25     -2   42   57   0.230  -0.460        0
  2095  2538-27-47     -2   42   57   0.230  -0.460        0
  2096  2538-32-46     -2   42   57   0.230  -0.460        0
  2097  2538-37-34     -2   42   57   0.230  -0.460        0
  2098  2538-42-363    -2   42   57   0.230  -0.460        0
  2099  2538-48-338    -2   42   57   0.230  -0.460        0
  2100  2538-56-24     -2   42   57   0.230  -0.460        0
  2101  2538-60-321    -2   42   57   0.230  -0.460        0
  2102  2534-56-24      2   42   56   0.340   0.320        0
  2103  2534-66-19      2   42   56   0.340   0.320        0
  2104  2532-56-24      2   42   56   0.380  -0.170        0
  2105  2500-71-62      2   43   56   0.110   0.450        0
  2106  2517-48-362     2   43   55  -0.160   0.180        0
  2107  2517-55-343     2   43   55  -0.160   0.180        0
  2108  2517-61-32      2   43   55  -0.160   0.180        0
  2109  2517-66-40      2   43   55  -0.160   0.180        0
  2110  2517-71-350     2   43   55  -0.160   0.180        0
  2111  2514-17-3       1   43   55   0.070   0.410        0
  2112  2475-22-25     -2   44   55  -0.130   0.050        0
  2113  2475-27-11     -2   44   55  -0.130   0.050        0
  2114  2475-43-32     -2   44   55  -0.130   0.050        0
  2115  2475-48-362    -2   44   55  -0.130   0.050        0
  2116  2475-55-347    -2   44   55  -0.130   0.050        0
  2117  2475-60-362    -2   44   55  -0.130   0.050        0
  2118  2475-66-1      -2   44   55  -0.130   0.050        0
  2119  2475-71-350    -2   44   55  -0.130   0.050        0
  2120  2480-22-25     -2   44   57  -0.240  -0.460        0
  2121  2480-42-362    -2   44   57  -0.240  -0.460        0
  2122  2480-48-362    -2   44   57  -0.240  -0.460        0
  2123  2480-56-5      -2   44   57  -0.240  -0.460        0
  2124  2480-61-5      -2   44   57  -0.240  -0.460        0
  2125  2480-66-40     -2   44   57  -0.240  -0.460        0
  2126  2480-71-26     -2   44   57  -0.240  -0.460        0
  2127  2480-71-350    -2   44   57  -0.240  -0.460        0
  2128  2471-17-3       1   44   56   0.020   0.280        0
  2129  2471-27-11      1   44   56   0.020   0.280        0
  2130  2536-48-362    -2   42   55   0.340  -0.410        0
  2131  2536-55-347    -2   42   55   0.340  -0.410        0
  2132  2536-60-362    -2   42   55   0.340  -0.410        0
  2133  2536-66-40     -2   42   55   0.340  -0.410        0
  2134  2536-71-350    -2   42   55   0.340  -0.410        0
  2135  2528-42-362    -2   42   54   0.420  -0.350        0
  2136  2528-48-362    -2   42   54   0.420  -0.350        0
  2137  2528-55-347    -2   42   54   0.420  -0.350        0
  2138  2528-60-362    -2   42   54   0.420  -0.350        0
  2139  2528-66-48     -2   42   54   0.420  -0.350        0
  2140  2528-71-350    -2   42   54   0.420  -0.350        0
  2141  2509-17-3       2   43   54   0.070   0.500        0
  2142  2509-31-351     2   43   54   0.070   0.500        0
  2143  2521-42-363    -2   43   53  -0.390   0.490        0
  2144  2521-48-335    -2   43   53  -0.390   0.490        0
  2145  2521-56-25     -2   43   53  -0.390   0.490        0
  2146  2521-61-56     -2   43   53  -0.390   0.490        0
  2147  2505-56-25      2   43   54   0.100  -0.410        0
  2148  2506-48-335    -2   43   53   0.140   0.490        0
  2149  2506-56-25     -2   43   53   0.140   0.490        0
  2150  2506-61-56     -2   43   53   0.140   0.490        0
  2151  2506-66-18     -2   43   53   0.140   0.490        0
  2152  2506-71-11     -2   43   53   0.140   0.490        0
  2153  2506-71-365    -2   43   53   0.140   0.490        0
  2154  2488-1-357      2   44   54  -0.470   0.460        0
  2155  2488-7-316      2   44   54  -0.470   0.460        0
  2156  2488-10-283     2   44   54  -0.470   0.460        0
  2157  2488-17-33      2   44   54  -0.470   0.460        0
  2158  2488-22-25      2   44   54  -0.470   0.460        0
  2159  2488-27-47      2   44   54  -0.470   0.460        0
  2160  2488-37-27      2   44   54  -0.470   0.460        0
  2161  2472-1-357      1   44   54   0.140   0.070        0
  2162  2472-8-36       1   44   54   0.140   0.070        0
  2163  2472-12-50      1   44   54   0.140   0.070        0
  2164  2472-17-33      1   44   54   0.140   0.070        0
  2165  2537-22-25      2   42   52   0.260  -0.270        0
  2166  2537-27-47      2   42   52   0.260  -0.270        0
  2167  2537-32-46      2   42   52   0.260  -0.270        0
  2168  2537-37-34      2   42   52   0.260  -0.270        0
  2169  2537-42-363     2   42   52   0.260  -0.270        0
  2170  2537-56-20      2   42   52   0.260  -0.270        0
  2171  2497-42-363     1   43   51   0.290  -0.270        0
  2172  2497-48-337     1   43   51   0.290  -0.270        0
  2173  2497-56-20      1   43   51   0.290  -0.270        0
  2174  2434-48-362     2   45   53  -0.370  -0.450        0
  2175  2434-55-346     2   45   53  -0.370  -0.450        0
  2176  2434-61-6       2   45   53  -0.370  -0.450        0
  2177  2434-66-48      2   45   53  -0.370  -0.450        0
  2178  2434-71-12      2   45   53  -0.370  -0.450        0
  2179  2434-71-350     2   45   53  -0.370  -0.450        0
  2180  2355-42-362    -2   46   51   0.010   0.340        0
  2181  2355-48-362    -2   46   51   0.010   0.340        0
  2182  2355-55-343    -2   46   51   0.010   0.340        0
  2183  2355-61-40     -2   46   51   0.010   0.340        0
  2184  2355-71-47      3   46   51   0.010   0.340        0
  2185  2355-71-350     3   46   51   0.010   0.340        0
  2186  2428-56-38      2   45   55  -0.330  -0.370        0
  2187  2428-66-48      2   45   55  -0.330  -0.370        0
  2188  2428-71-5       2   45   55  -0.330  -0.370        0
  2189  2428-71-365     2   45   55  -0.330  -0.370        0
  2190  2433-66-48      2   45   54  -0.360  -0.120        0
  2191  2433-71-5       2   45   54  -0.360  -0.120        0
  2192  2433-71-365     2   45   54  -0.360  -0.120        0
  2193  2403-48-362    -2   45   54  -0.020  -0.280        0
  2194  2403-55-343    -2   45   54  -0.020  -0.280        0
  2195  2403-66-59     -2   45   54  -0.020  -0.280        0
  2196  2403-71-47     -2   45   54  -0.020  -0.280        0
  2197  2403-71-365    -2   45   54  -0.020  -0.280        0
  2198  2410-66-59      2   45   54   0.090  -0.090        0
  2199  2410-71-47      2   45   54   0.090  -0.090        0
  2200  2410-71-365     2   45   54   0.090  -0.090        0
  2201  2462-8-38       1   44   53   0.210   0.000        0
  2202  2464-12-50      1   44   53   0.180   0.000        0
  2203  2464-17-23      1   44   53   0.180   0.000        0
  2204  2464-22-23      1   44   53   0.180   0.000        0
  2205  2459-42-362     1   44   53   0.440  -0.030        0
  2206  2459-48-362     1   44   53   0.440  -0.030        0
  2207  2409-66-48      2   45   54   0.090   0.140        0
  2208  2409-71-12      2   45   54   0.090   0.140        0
  2209  2357-12-50      2   46   54   0.090   0.100        0
  2210  2357-17-35      2   46   54   0.090   0.100        0
  2211  2357-22-23      2   46   54   0.090   0.100        0
  2212  2357-27-34      2   46   54   0.090   0.100        0
  2213  2357-37-34      2   46   54   0.090   0.100        0
  2214  2357-66-48      2   46   54   0.090   0.100        0
  2215  2357-71-12      2   46   54   0.090   0.100        0
  2216  2357-71-365     2   46   54   0.090   0.100        0
  2217  2336-61-21      2   46   54   0.090   0.100        0
  2218  2363-56-38      2   46   54  -0.100   0.490        0
  2219  2363-66-48      2   46   54  -0.100   0.490        0
  2220  2363-71-5       2   46   54  -0.100   0.490        0
  2221  2363-71-365     2   46   54  -0.100   0.490        0
  2222  2460-22-25     -2   44   55   0.250   0.340        0
  2223  2460-48-362    -2   44   55   0.250   0.340        0
  2224  2460-55-343    -2   44   55   0.250   0.340        0
  2225  2460-61-20     -2   44   55   0.250   0.340        0
  2226  2460-66-49     -2   44   55   0.250   0.340        0
  2227  2460-71-41     -2   44   55   0.250   0.340        0
  2228  2460-71-350    -2   44   55   0.250   0.340        0
  2229  2399-56-38      2   45   55   0.320   0.050        0
  2230  2399-66-48      2   45   55   0.320   0.050        0
  2231  2399-71-5       2   45   55   0.320   0.050        0
  2232  2399-71-365     2   45   55   0.320   0.050        0
  2233  2373-56-6      -3   46   55  -0.450   0.050        0
  2234  2373-61-6      -3   46   55  -0.450   0.050        0
  2235  2373-66-48     -3   46   55  -0.450   0.050        0
  2236  2373-71-12     -3   46   55  -0.450   0.050        0
  2237  2373-71-365    -3   46   55  -0.450   0.050        0
  2238  2356-56-38      2   46   55  -0.020   0.470        0
  2239  2356-66-42      2   46   55  -0.020   0.470        0
  2240  2356-71-5       2   46   55  -0.020   0.470        0
  2241  2356-71-365     2   46   55  -0.020   0.470        0
  2242  2389-8-37       1   46   56  -0.480   0.150        0
  2243  2389-12-38      1   46   56  -0.480   0.150        0
  2244  2388-17-34      1   46   56  -0.480   0.190        0
  2245  2388-22-25      1   46   56  -0.480   0.190        0
  2246  2388-32-46      1   46   56  -0.480   0.190        0
  2247  2388-38-32      1   46   56  -0.480   0.190        0
  2248  2343-12-50     -2   46   56   0.090  -0.330        0
  2249  2343-17-35     -2   46   56   0.090  -0.330        0
  2250  2343-22-24     -2   46   56   0.090  -0.330        0
  2251  2343-61-21     -2   46   56   0.090  -0.330        0
  2252  2427-42-363    -2   45   58  -0.360   0.040        0
  2253  2427-48-337    -2   45   58  -0.360   0.040        0
  2254  2427-61-20     -2   45   58  -0.360   0.040        0
  2255  2427-66-31     -2   45   58  -0.360   0.040        0
  2256  2418-10-262     1   45   58   0.020  -0.290        0
  2257  2408-10-262     1   45   58   0.100   0.460        0
  2258  2431-7-316      1   45   57  -0.360   0.420        0
  2259  2431-12-38      1   45   57  -0.360   0.420        0
  2260  2446-22-25     -2   45   57  -0.360   0.450        0
  2261  2447-7-32       1   44   57   0.480  -0.290        0
  2262  2432-7-316      1   45   57  -0.360   0.060        0
  2263  2432-12-33      1   45   57  -0.360   0.060        0
  2264  2432-22-1       1   45   57  -0.360   0.060        0
  2265  2432-42-363     1   45   57  -0.360   0.060        0
  2266  2405-16-293     1   45   58   0.170  -0.450        0
  2267  2383-12-50      1   46   58  -0.330   0.270        0
  2268  2383-17-24      1   46   58  -0.330   0.270        0
  2269  2383-22-24      1   46   58  -0.330   0.270        0
  2270  2383-27-11      1   46   58  -0.330   0.270        0
  2271  2383-32-48      1   46   58  -0.330   0.270        0
  2272  2387-61-20     -2   46   58  -0.330   0.270        0
  2273  2387-66-28     -2   46   58  -0.330   0.270        0
  2274  2387-71-54     -2   46   58  -0.330   0.270        0
  2275  2372-27-47      2   46   58  -0.330  -0.380        0
  2276  2372-42-363     2   46   58  -0.330  -0.380        0
  2277  2372-56-19      2   46   58  -0.330  -0.380        0
  2278  2372-71-54      2   46   58  -0.330  -0.380        0
  2279  2332-61-20     -2   46   58   0.130   0.070        0
  2280  2332-66-28     -2   46   58   0.130   0.070        0
  2281  2332-71-54     -2   46   58   0.130   0.070        0
  2282  2437-22-24      2   45   60  -0.440   0.440        0
  2283  2437-27-15      2   45   60  -0.440   0.440        0
  2284  2437-32-48      2   45   60  -0.440   0.440        0
  2285  2438-12-306     1   45   60  -0.440  -0.300        0
  2286  2438-16-298     1   45   60  -0.440  -0.300        0
  2287  2430-42-363    -2   45   60  -0.440  -0.430        0
  2288  2430-48-337    -2   45   60  -0.440  -0.430        0
  2289  2430-56-19     -2   45   60  -0.440  -0.430        0
  2290  2430-66-28     -2   45   60  -0.440  -0.430        0
  2291  2430-71-54     -2   45   60  -0.440  -0.430        0
  2292  2444-10-264     1   45   60  -0.480  -0.080        0
  2293  2424-10-265     1   45   60  -0.210  -0.080        0
  2294  2425-10-265     1   45   60  -0.250   0.180        0
  2295  2414-10-263     1   45   60   0.060   0.180        0
  2296  2458-42-362    -2   44   59   0.220  -0.050        0
  2297  2458-48-362    -2   44   59   0.220  -0.050        0
  2298  2458-56-32     -2   44   59   0.220  -0.050        0
  2299  2458-61-20     -2   44   59   0.220  -0.050        0
  2300  2458-66-49     -2   44   59   0.220  -0.050        0
  2301  2458-71-41     -2   44   59   0.220  -0.050        0
  2302  2458-71-365    -2   44   59   0.220  -0.050        0
  2303  2439-42-363    -2   45   59  -0.440   0.010        0
  2304  2439-48-337    -2   45   59  -0.440   0.010        0
  2305  2439-56-19     -2   45   59  -0.440   0.010        0
  2306  2439-61-20     -2   45   59  -0.440   0.010        0
  2307  2439-66-31     -2   45   59  -0.440   0.010        0
  2308  2415-1-52       1   45   59   0.170   0.470        0
  2309  2407-27-47     -2   45   60   0.100  -0.470        0
  2310  2407-61-20     -2   45   60   0.100  -0.470        0
  2311  2407-66-28     -2   45   60   0.100  -0.470        0
  2312  2407-71-54     -2   45   60   0.100  -0.470        0
  2313  2402-10-263     1   45   59   0.290  -0.310        0
  2314  2394-56-26      1   45   60   0.360   0.120        0
  2315  2394-61-61      1   45   60   0.360   0.120        0
  2316  2394-66-25      1   45   60   0.360   0.120        0
  2317  2386-60-341     2   46   60  -0.480  -0.370        0
  2318  2386-66-49      2   46   60  -0.480  -0.370        0
  2319  2386-71-40      2   46   60  -0.480  -0.370        0
  2320  2386-71-365     2   46   60  -0.480  -0.370        0
  2321  2453-27-47      1   44   62   0.370   0.130        0
  2322  2413-2-121      2   45   62   0.060  -0.350        0
  2323  2412-12-304    -2   45   62   0.060  -0.090        0
  2324  2412-16-298    -2   45   62   0.060  -0.090        0
  2325  2412-16-364    -2   45   62   0.060  -0.090        0
  2326  2398-1-357      1   45   62   0.320   0.130        0
  2327  2398-7-2        1   45   62   0.320   0.130        0
  2328  2395-42-363    -2   45   62   0.360   0.130        0
  2329  2395-48-337    -2   45   62   0.360   0.130        0
  2330  2385-42-363    -2   46   62  -0.480   0.000        0
  2331  2385-48-362    -2   46   62  -0.480   0.000        0
  2332  2385-55-346    -2   46   62  -0.480   0.000        0
  2333  2385-61-31     -2   46   62  -0.480   0.000        0
  2334  2385-66-1      -2   46   62  -0.480   0.000        0
  2335  2385-71-41     -2   46   62  -0.480   0.000        0
  2336  2385-71-365    -2   46   62  -0.480   0.000        0
  2337  2282-12-46      1   47   62  -0.450   0.460        0
  2338  2282-17-24      1   47   62  -0.450   0.460        0
  2339  2282-22-24      1   47   62  -0.450   0.460        0
  2340  2282-32-48      1   47   62  -0.450   0.460        0
  2341  2326-26-293    -3   46   62   0.240  -0.260        0
  2342  2326-42-363    -3   46   62   0.240  -0.260        0
  2343  2326-48-362    -3   46   62   0.240  -0.260        0
  2344  2326-56-33     -3   46   62   0.240  -0.260        0
  2345  2326-61-41     -3   46   62   0.240  -0.260        0
  2346  2326-66-45     -3   46   62   0.240  -0.260        0
  2347  2326-71-41     -3   46   62   0.240  -0.260        0
  2348  2326-71-365    -3   46   62   0.240  -0.260        0
  2349  2260-56-26      1   47   62  -0.300  -0.190        0
  2350  2260-61-61      1   47   62  -0.300  -0.190        0
  2351  2260-66-25      1   47   62  -0.300  -0.190        0
  2352  2260-71-61      1   47   62  -0.300  -0.190        0
  2353  2202-71-61      2   48   61  -0.490  -0.130        0
  2354  2127-42-335    -2   48   61   0.120   0.090        0
  2355  2283-7-311     -2   47   59  -0.450   0.440        0
  2356  2283-17-24     -2   47   59  -0.450   0.440        0
  2357  2283-22-24     -2   47   59  -0.450   0.440        0
  2358  2283-27-47     -2   47   59  -0.450   0.440        0
  2359  2283-32-48     -2   47   59  -0.450   0.440        0
  2360  2283-35-15     -2   47   59  -0.450   0.440        0
  2361  2291-37-32     -2   46   60   0.470  -0.500        0
  2362  2291-48-338    -2   46   60   0.470  -0.500        0
  2363  2291-60-321    -2   46   60   0.470  -0.500        0
  2364  2291-71-13     -2   46   60   0.470  -0.500        0
  2365  2291-71-365    -2   46   60   0.470  -0.500        0
  2366  2304-7-311      1   46   59   0.200  -0.180        0
  2367  2304-12-38      1   46   59   0.200  -0.180        0
  2368  2304-17-3       1   46   59   0.200  -0.180        0
  2369  2304-22-24      1   46   59   0.200  -0.180        0
  2370  2304-27-11      1   46   59   0.200  -0.180        0
  2371  2237-7-79       2   47   60   0.160  -0.470        0
  2372  2237-12-38      2   47   60   0.160  -0.470        0
  2373  2237-17-24      2   47   60   0.160  -0.470        0
  2374  2237-22-24      2   47   60   0.160  -0.470        0
  2375  2237-27-16      2   47   60   0.160  -0.470        0
  2376  2218-56-34      2   47   59   0.430   0.080        0
  2377  2218-66-59      2   47   59   0.430   0.080        0
  2378  2218-71-54      2   47   59   0.430   0.080        0
  2379  2218-71-365     2   47   59   0.430   0.080        0
  2380  2212-26-349    -2   48   60  -0.420  -0.470        0
  2381  2212-42-362    -2   48   60  -0.420  -0.470        0
  2382  2212-61-20     -2   48   60  -0.420  -0.470        0
  2383  2212-66-59     -2   48   60  -0.420  -0.470        0
  2384  2212-71-54     -2   48   60  -0.420  -0.470        0
  2385  2212-71-365    -2   48   60  -0.420  -0.470        0
  2386  2213-56-34      2   47   59   0.470   0.400        0
  2387  2213-66-59      2   47   59   0.470   0.400        0
  2388  2213-71-54      2   47   59   0.470   0.400        0
  2389  2213-71-365     2   47   59   0.470   0.400        0
  2390  2177-42-363    -2   48   59  -0.300  -0.410        0
  2391  2177-48-337     2   48   59  -0.300  -0.410        0
  2392  2177-56-19      2   48   59  -0.300  -0.410        0
  2393  2177-66-31      2   48   59  -0.300  -0.410        0
  2394  2177-71-54      2   48   59  -0.300  -0.410        0
  2395  2175-6-283      2   48   60  -0.040  -0.500        0
  2396  2175-12-51      2   48   60  -0.040  -0.500        0
  2397  2175-17-24      2   48   60  -0.040  -0.500        0
  2398  2175-22-24      2   48   60  -0.040  -0.500        0
  2399  2175-27-47      2   48   60  -0.040  -0.500        0
  2400  2176-56-34      2   48   59  -0.230   0.080        0
  2401  2176-66-59      2   48   59  -0.230   0.080        0
  2402  2176-71-54      2   48   59  -0.230   0.080        0
  2403  2176-71-365     2   48   59  -0.230   0.080        0
  2404  2154-56-19     -2   48   60  -0.040  -0.470        0
  2405  2154-61-20     -2   48   60  -0.040  -0.470        0
  2406  2154-66-28     -2   48   60  -0.040  -0.470        0
  2407  2154-71-54     -2   48   60  -0.040  -0.470        0
  2408  2232-56-26      1   47   60   0.240   0.380        0
  2409  2232-61-20      1   47   60   0.240   0.380        0
  2410  2232-66-25      1   47   60   0.240   0.380        0
  2411  2232-71-53      1   47   60   0.240   0.380        0
  2412  2211-56-26      2   48   60  -0.300   0.310        0
  2413  2211-61-20      2   48   60  -0.300   0.310        0
  2414  2211-66-25      2   48   60  -0.300   0.310        0
  2415  2211-71-53      2   48   60  -0.300   0.310        0
  2416  2233-56-26      1   47   60   0.310  -0.240        0
  2417  2233-61-20      1   47   60   0.310  -0.240        0
  2418  2170-56-26      2   48   60  -0.190  -0.170        0
  2419  2170-66-25      2   48   60  -0.190  -0.170        0
  2420  2131-12-290     1   48   60   0.120   0.410        0
  2421  2131-56-26      2   48   60   0.120   0.410        0
  2422  2131-61-61      2   48   60   0.120   0.410        0
  2423  2131-66-25      2   48   60   0.120   0.410        0
  2424  2131-71-53      2   48   60   0.120   0.410        0
  2425  2137-42-363    -2   48   58   0.040  -0.450        0
  2426  2137-48-338    -2   48   58   0.040  -0.450        0
  2427  2137-56-24     -2   48   58   0.040  -0.450        0
  2428  2137-66-19     -2   48   58   0.040  -0.450        0
  2429  2137-71-60     -2   48   58   0.040  -0.450        0
  2430  2289-11-38      2   47   56  -0.490   0.150        0
  2431  2289-17-33      2   47   56  -0.490   0.150        0
  2432  2289-22-24      2   47   56  -0.490   0.150        0
  2433  2289-32-32      2   47   56  -0.490   0.150        0
  2434  2241-10-33      2   47   56   0.120   0.250        0
  2435  2241-17-33      2   47   56   0.120   0.250        0
  2436  2241-22-24      2   47   56   0.120   0.250        0
  2437  2241-42-363     2   47   56   0.120   0.250        0
  2438  2241-48-334     2   47   56   0.120   0.250        0
  2439  2241-56-26      2   47   56   0.120   0.250        0
  2440  2241-61-21      2   47   56   0.120   0.250        0
  2441  2236-1-357      2   47   56   0.200   0.380        0
  2442  2236-6-341      2   47   56   0.200   0.380        0
  2443  2236-12-59      2   47   56   0.200   0.380        0
  2444  2236-16-313     2   47   56   0.200   0.380        0
  2445  2236-22-32      2   47   56   0.200   0.380        0
  2446  2327-71-365     2   46   56   0.240  -0.400        0
  2447  2306-71-54      2   46   55   0.360   0.310        0
  2448  2306-71-365     2   46   55   0.360   0.310        0
  2449  2264-56-38      2   47   56  -0.300  -0.430        0
  2450  2264-66-48      2   47   56  -0.300  -0.430        0
  2451  2264-71-5       2   47   56  -0.300  -0.430        0
  2452  2264-71-365     2   47   56  -0.300  -0.430        0
  2453  2307-71-54      1   46   55   0.360  -0.050        0
  2454  2307-71-365     1   46   55   0.360  -0.050        0
  2455  2292-56-38      2   46   55   0.470  -0.280        0
  2456  2292-66-42      2   46   55   0.470  -0.280        0
  2457  2293-56-38      2   46   55   0.470  -0.310        0
  2458  2293-66-48      2   46   55   0.470  -0.310        0
  2459  2293-71-12      2   46   55   0.470  -0.310        0
  2460  2293-71-365     2   46   55   0.470  -0.310        0
  2461  2272-55-346     2   47   55  -0.370  -0.080        0
  2462  2272-71-54      1   47   55  -0.370  -0.080        0
  2463  2272-71-365     1   47   55  -0.370  -0.080        0
  2464  2268-66-3       2   47   55  -0.340  -0.210        0
  2465  2268-71-365     2   47   55  -0.340  -0.210        0
  2466  2242-56-38      2   47   55   0.080  -0.180        0
  2467  2242-66-48      2   47   55   0.080  -0.180        0
  2468  2242-71-365     2   47   55   0.080  -0.180        0
  2469  2257-56-38      2   47   55  -0.220   0.210        0
  2470  2257-66-48      2   47   55  -0.220   0.210        0
  2471  2258-56-38      2   47   55  -0.220   0.180        0
  2472  2258-66-48      2   47   55  -0.220   0.180        0
  2473  2187-42-362     2   48   55  -0.380  -0.250        0
  2474  2187-48-336     2   48   55  -0.380  -0.250        0
  2475  2187-56-5       2   48   55  -0.380  -0.250        0
  2476  2187-61-6       2   48   55  -0.380  -0.250        0
  2477  2187-66-48      2   48   55  -0.380  -0.250        0
  2478  2187-71-54      2   48   55  -0.380  -0.250        0
  2479  2187-71-349     2   48   55  -0.380  -0.250        0
  2480  2234-56-38      2   47   57   0.280  -0.460        0
  2481  2234-66-48      2   47   57   0.280  -0.460        0
  2482  2226-66-48      1   47   56   0.350  -0.110        0
  2483  2155-56-38      2   48   56  -0.040  -0.110        0
  2484  2155-66-48      2   48   56  -0.040  -0.110        0
  2485  2333-56-38      2   46   55   0.170  -0.470        0
  2486  2333-66-48      2   46   55   0.170  -0.470        0
  2487  2308-56-38      2   46   54   0.360   0.490        0
  2488  2308-66-48      2   46   54   0.360   0.490        0
  2489  2308-71-21      2   46   54   0.360   0.490        0
  2490  2308-71-365     2   46   54   0.360   0.490        0
  2491  2329-56-38      2   46   54   0.240   0.400        0
  2492  2329-66-48      2   46   54   0.240   0.400        0
  2493  2329-71-12      2   46   54   0.240   0.400        0
  2494  2329-71-365     2   46   54   0.240   0.400        0
  2495  2319-66-48      2   46   55   0.280  -0.380        0
  2496  2320-56-38      2   46   55   0.280  -0.410        0
  2497  2320-66-48      2   46   55   0.280  -0.410        0
  2498  2320-71-12      2   46   55   0.280  -0.410        0
  2499  2320-71-365     2   46   55   0.280  -0.410        0
  2500  2299-55-343     2   46   54   0.430   0.330        0
  2501  2299-71-54      1   46   54   0.430   0.330        0
  2502  2299-71-365     1   46   54   0.430   0.330        0
  2503  2274-56-38      2   47   55  -0.370  -0.470        0
  2504  2274-71-54      1   47   55  -0.370  -0.470        0
  2505  2274-71-365     1   47   55  -0.370  -0.470        0
  2506  2294-56-38      2   46   55   0.470  -0.470        0
  2507  2294-66-48      2   46   55   0.470  -0.470        0
  2508  2294-71-12      2   46   55   0.470  -0.470        0
  2509  2294-71-365     2   46   55   0.470  -0.470        0
  2510  2273-56-38      2   47   55  -0.410  -0.440        0
  2511  2273-66-48      2   47   55  -0.410  -0.440        0
  2512  2273-71-21      2   47   55  -0.410  -0.440        0
  2513  2273-71-365     2   47   55  -0.410  -0.440        0
  2514  2284-66-42      2   47   54  -0.450  -0.090        0
  2515  2167-1-365      2   48   54  -0.150   0.430        0
  2516  2167-7-310      2   48   54  -0.150   0.430        0
  2517  2167-11-38      2   48   54  -0.150   0.430        0
  2518  2183-12-50      2   48   54  -0.270   0.460        0
  2519  2183-17-34      2   48   54  -0.270   0.460        0
  2520  2183-22-23      2   48   54  -0.270   0.460        0
  2521  2183-32-47      2   48   54  -0.270   0.460        0
  2522  2183-38-32      2   48   54  -0.270   0.460        0
  2523  2168-42-364     2   48   54  -0.150   0.400        0
  2524  2243-42-364    -2   47   52   0.050   0.320        0
  2525  2243-56-25     -2   47   52   0.050   0.320        0
  2526  2243-66-19     -2   47   52   0.050   0.320        0
  2527  2108-66-48      2   48   56   0.310   0.280        0
  2528  2109-12-50      2   48   56   0.230  -0.240        0
  2529  2109-17-34      2   48   56   0.230  -0.240        0
  2530  2109-22-23      2   48   56   0.230  -0.240        0
  2531  2109-42-362     2   48   56   0.230  -0.240        0
  2532  2109-48-363     2   48   56   0.230  -0.240        0
  2533  2109-55-346     2   48   56   0.230  -0.240        0
  2534  2109-60-323     2   48   56   0.230  -0.240        0
  2535  2109-66-48      2   48   56   0.230  -0.240        0
  2536  2109-71-12      2   48   56   0.230  -0.240        0
  2537  2109-71-349     2   48   56   0.230  -0.240        0
  2538  1991-7-25      -2   50   56  -0.390   0.310        0
  2539  1991-12-50     -2   50   56  -0.390   0.310        0
  2540  1991-17-34     -2   50   56  -0.390   0.310        0
  2541  1991-22-23     -2   50   56  -0.390   0.310        0
  2542  1991-27-11     -2   50   56  -0.390   0.310        0
  2543  1991-38-32     -2   50   56  -0.390   0.310        0
  2544  1991-42-365    -2   50   56  -0.390   0.310        0
  2545  1991-48-337     2   50   56  -0.390   0.310        0
  2546  1991-56-25      2   50   56  -0.390   0.310        0
  2547  1991-60-323     2   50   56  -0.390   0.310        0
  2548  2038-12-51      2   49   58  -0.350   0.360        0
  2549  2038-17-24      2   49   58  -0.350   0.360        0
  2550  2038-22-24      2   49   58  -0.350   0.360        0
  2551  2038-56-19      2   49   58  -0.350   0.360        0
  2552  2122-61-21     -2   48   57   0.190  -0.070        0
  2553  2075-56-38      2   49   57  -0.420  -0.360        0
  2554  2039-61-21     -2   49   57   0.110   0.190        0
  2555  2021-61-20     -2   49   57   0.190   0.420        0
  2556  2020-61-21     -2   49   57   0.150   0.320        0
  2557  1987-66-48      2   50   57  -0.310  -0.100        0
  2558  1958-42-362    -2   50   57  -0.010   0.100        0
  2559  1958-48-362    -2   50   57  -0.010   0.100        0
  2560  1958-55-346    -2   50   57  -0.010   0.100        0
  2561  1958-61-20     -2   50   57  -0.010   0.100        0
  2562  1958-66-1      -2   50   57  -0.010   0.100        0
  2563  1958-71-47     -2   50   57  -0.010   0.100        0
  2564  1958-71-349    -2   50   57  -0.010   0.100        0
  2565  1952-12-301    -2   50   58  -0.120  -0.420        0
  2566  1952-17-4      -2   50   58  -0.120  -0.420        0
  2567  1952-22-32     -2   50   58  -0.120  -0.420        0
  2568  1952-27-11     -2   50   58  -0.120  -0.420        0
  2569  2107-56-26     -3   48   60   0.350   0.020        0
  2570  2107-61-20     -3   48   60   0.350   0.020        0
  2571  2107-71-53     -3   48   60   0.350   0.020        0
  2572  2079-7-152      2   48   60   0.120   0.410        0
  2573  2079-61-20      2   48   60   0.120   0.410        0
  2574  2057-42-362     2   49   60  -0.160   0.180        0
  2575  2057-48-362     2   49   60  -0.160   0.180        0
  2576  2057-55-346     2   49   60  -0.160   0.180        0
  2577  2057-61-20      2   49   60  -0.160   0.180        0
  2578  2057-65-354     2   49   60  -0.160   0.180        0
  2579  2057-71-56      2   49   60  -0.160   0.180        0
  2580  2057-71-365     2   49   60  -0.160   0.180        0
  2581  2161-6-283      2   48   59  -0.070   0.440        0
  2582  2161-10-283     2   48   59  -0.070   0.440        0
  2583  2161-17-24      2   48   59  -0.070   0.440        0
  2584  2161-22-24      2   48   59  -0.070   0.440        0
  2585  2161-27-47      2   48   59  -0.070   0.440        0
  2586  2161-32-48      2   48   59  -0.070   0.440        0
  2587  2161-38-32      2   48   59  -0.070   0.440        0
  2588  2094-61-20     -3   48   60   0.420  -0.470        0
  2589  2094-66-28     -3   48   60   0.420  -0.470        0
  2590  2094-71-54     -3   48   60   0.420  -0.470        0
  2591  2059-7-311     -2   49   59  -0.270   0.080        0
  2592  2059-12-51     -2   49   59  -0.270   0.080        0
  2593  2059-17-4      -2   49   59  -0.270   0.080        0
  2594  2059-22-24     -2   49   59  -0.270   0.080        0
  2595  2059-27-47     -2   49   59  -0.270   0.080        0
  2596  2059-61-21     -2   49   59  -0.270   0.080        0
  2597  1989-42-365     1   50   59  -0.390  -0.410        0
  2598  1989-56-17      2   50   59  -0.390  -0.410        0
  2599  1989-61-20      2   50   59  -0.390  -0.410        0
  2600  1968-42-365    -2   50   59  -0.120  -0.120        0
  2601  1968-56-17     -2   50   59  -0.120  -0.120        0
  2602  1968-61-20     -2   50   59  -0.120  -0.120        0
  2603  1937-56-17      2   50   59   0.150  -0.020        0
  2604  1937-61-20      2   50   59   0.150  -0.020        0
  2605  1937-66-27      2   50   59   0.150  -0.020        0
  2606  2007-61-21      1   49   60   0.460   0.120        0
  2607  2007-66-25      1   49   60   0.460   0.120        0
  2608  1981-61-21     -2   50   60  -0.240   0.180        0
  2609  2037-66-32      1   49   62   0.040   0.230        0
  2610  2106-26-349    -2   48   61   0.310  -0.070        0
  2611  2106-32-32     -2   48   61   0.310  -0.070        0
  2612  2106-42-362    -2   48   61   0.310  -0.070        0
  2613  2106-48-362    -2   48   61   0.310  -0.070        0
  2614  2106-56-34     -2   48   61   0.310  -0.070        0
  2615  2106-61-41     -2   48   61   0.310  -0.070        0
  2616  2106-66-54     -2   48   61   0.310  -0.070        0
  2617  2106-71-41     -2   48   61   0.310  -0.070        0
  2618  2106-71-365    -2   48   61   0.310  -0.070        0
  2619  1951-12-51     -2   50   62   0.070   0.140        0
  2620  1951-17-39     -2   50   62   0.070   0.140        0
  2621  1951-22-28     -2   50   62   0.070   0.140        0
  2622  1951-38-354    -2   50   62   0.070   0.140        0
  2623  1951-42-363    -2   50   62   0.070   0.140        0
  2624  1951-48-362    -2   50   62   0.070   0.140        0
  2625  1951-55-346    -2   50   62   0.070   0.140        0
  2626  1951-61-41     -2   50   62   0.070   0.140        0
  2627  1951-66-49     -2   50   62   0.070   0.140        0
  2628  1951-71-56     -2   50   62   0.070   0.140        0
  2629  1951-71-365    -2   50   62   0.070   0.140        0
  2630  2494-1-365      2   43   65   0.300  -0.360        0
  2631  2489-22-66     -2   43   63   0.450  -0.410        0
  2632  2489-27-87     -2   43   63   0.450  -0.410        0
  2633  2489-32-1      -2   43   63   0.450  -0.410        0
  2634  2489-33-60     -2   43   63   0.450  -0.410        0
  2635  2489-42-363     2   43   63   0.450  -0.410        0
  2636  2489-55-349     2   43   63   0.450  -0.410        0
  2637  2429-61-61      1   45   64  -0.370  -0.470        0
  2638  2429-66-25      1   45   64  -0.370  -0.470        0
  2639  2429-71-53      1   45   64  -0.370  -0.470        0
  2640  2457-22-65     -2   44   63   0.250  -0.440        0
  2641  2457-26-341    -2   44   63   0.250  -0.440        0
  2642  2457-31-335    -2   44   63   0.250  -0.440        0
  2643  2457-33-60     -2   44   63   0.250  -0.440        0
  2644  2457-42-363    -2   44   63   0.250  -0.440        0
  2645  2457-48-337    -2   44   63   0.250  -0.440        0
  2646  2457-56-18     -2   44   63   0.250  -0.440        0
  2647  2457-61-47     -2   44   63   0.250  -0.440        0
  2648  2457-66-32     -2   44   63   0.250  -0.440        0
  2649  2457-71-14     -2   44   63   0.250  -0.440        0
  2650  2457-71-42     -2   44   63   0.250  -0.440        0
  2651  2457-71-365    -2   44   63   0.250  -0.440        0
  2652  2426-61-61      1   45   63  -0.330  -0.350        0
  2653  2426-66-25      1   45   63  -0.330  -0.350        0
  2654  2378-22-66      2   46   63  -0.410   0.140        0
  2655  2378-26-341     2   46   63  -0.410   0.140        0
  2656  2378-31-335     2   46   63  -0.410   0.140        0
  2657  2377-7-1        1   46   63  -0.410   0.400        0
  2658  2377-12-92      1   46   63  -0.410   0.400        0
  2659  2382-1-365      1   46   63  -0.450  -0.350        0
  2660  2369-16-364     1   46   63  -0.220  -0.350        0
  2661  2397-10-255     2   45   64   0.320   0.410        0
  2662  2381-66-32      2   46   64  -0.450  -0.210        0
  2663  2368-56-25      2   46   65  -0.140  -0.460        0
  2664  2368-61-48      2   46   65  -0.140  -0.460        0
  2665  2364-56-25     -2   46   64  -0.180   0.410        0
  2666  2364-61-48     -2   46   64  -0.180   0.410        0
  2667  2364-66-24     -2   46   64  -0.180   0.410        0
  2668  2364-71-14     -2   46   64  -0.180   0.410        0
  2669  2364-71-365    -2   46   64  -0.180   0.410        0
  2670  2361-56-25      2   46   64  -0.140   0.150        0
  2671  2361-61-48      2   46   64  -0.140   0.150        0
  2672  2361-66-24      2   46   64  -0.140   0.150        0
  2673  2361-71-14      2   46   64  -0.140   0.150        0
  2674  2361-71-365     2   46   64  -0.140   0.150        0
  2675  2349-42-364    -2   46   64   0.050   0.440        0
  2676  2349-48-341    -2   46   64   0.050   0.440        0
  2677  2349-56-18     -2   46   64   0.050   0.440        0
  2678  2349-61-48     -2   46   64   0.050   0.440        0
  2679  2349-66-24     -2   46   64   0.050   0.440        0
  2680  2349-71-14     -2   46   64   0.050   0.440        0
  2681  2349-71-365    -2   46   64   0.050   0.440        0
  2682  2422-32-60      1   45   65  -0.060   0.450        0
  2683  2422-33-60      1   45   65  -0.060   0.450        0
  2684  2422-42-363     2   45   65  -0.060   0.450        0
  2685  2422-48-357     2   45   65  -0.060   0.450        0
  2686  2422-55-349     2   45   65  -0.060   0.450        0
  2687  2422-61-3       2   45   65  -0.060   0.450        0
  2688  2406-22-65      2   45   65   0.210  -0.170        0
  2689  2396-16-298     1   45   65   0.320  -0.100        0
  2690  2396-22-32      1   45   65   0.320  -0.100        0
  2691  2396-27-10      1   45   65   0.320  -0.100        0
  2692  2401-22-65      1   45   65   0.280  -0.330        0
  2693  2376-26-341    -2   46   65  -0.410  -0.100        0
  2694  2365-22-65     -2   46   65  -0.180  -0.330        0
  2695  2365-27-4      -2   46   65  -0.180  -0.330        0
  2696  2335-56-18     -2   46   65   0.090  -0.320        0
  2697  2335-60-322    -2   46   65   0.090  -0.320        0
  2698  2335-65-326    -2   46   65   0.090  -0.320        0
  2699  2335-71-365    -2   46   65   0.090  -0.320        0
  2700  2348-56-18     -3   46   65   0.160  -0.070        0
  2701  2348-61-48     -3   46   65   0.160  -0.070        0
  2702  2348-66-24     -3   46   65   0.160  -0.070        0
  2703  2348-71-365    -3   46   65   0.160  -0.070        0
  2704  2347-42-364     2   46   65   0.090   0.420        0
  2705  2347-48-337     2   46   65   0.090   0.420        0
  2706  2347-56-18      2   46   65   0.090   0.420        0
  2707  2347-61-48      2   46   65   0.090   0.420        0
  2708  2347-66-24      2   46   65   0.090   0.420        0
  2709  2380-61-48      1   46   66  -0.490  -0.420        0
  2710  2392-61-48      2   45   66   0.360  -0.420        0
  2711  2391-61-48      1   46   66  -0.490  -0.390        0
  2712  2391-66-25      1   46   66  -0.490  -0.390        0
  2713  2374-66-40      2   46   66   0.130  -0.030        0
  2714  2374-71-365     2   46   66   0.130  -0.030        0
  2715  2354-16-361     1   46   67   0.010   0.170        0
  2716  2353-48-274     1   46   67   0.010   0.270        0
  2717  2352-22-65      2   46   68   0.010  -0.080        0
  2718  2351-66-45      1   46   69   0.010   0.160        0
  2719  2351-71-42      1   46   69   0.010   0.160        0
  2720  2351-71-365     1   46   69   0.010   0.160        0
  2721  2341-55-348     1   46   70   0.080  -0.230        0
  2722  2341-66-45      1   46   70   0.080  -0.230        0
  2723  2341-71-42      1   46   70   0.080  -0.230        0
  2724  2341-71-365     1   46   70   0.080  -0.230        0
  2725  2350-42-355     2   46   69   0.010   0.450        0
  2726  2350-48-355     2   46   69   0.010   0.450        0
  2727  2350-55-348     2   46   69   0.010   0.450        0
  2728  2350-61-3       2   46   69   0.010   0.450        0
  2729  2350-71-42      2   46   69   0.010   0.450        0
  2730  2350-71-365     2   46   69   0.010   0.450        0
  2731  2358-48-306     2   46   70  -0.070   0.390        0
  2732  2215-1-357      2   47   74   0.420  -0.420        0
  2733  2215-6-295      2   47   74   0.420  -0.420        0
  2734  2215-10-349     2   47   74   0.420  -0.420        0
  2735  2215-22-68      2   47   74   0.420  -0.420        0
  2736  2215-31-335     2   47   74   0.420  -0.420        0
  2737  2215-33-1       2   47   74   0.420  -0.420        0
  2738  2215-39-60      2   47   74   0.420  -0.420        0
  2739  2215-42-356     2   47   74   0.420  -0.420        0
  2740  2215-48-336     2   47   74   0.420  -0.420        0
  2741  2164-48-337     1   48   73  -0.160  -0.270        0
  2742  2164-56-24      1   48   73  -0.160  -0.270        0
  2743  2164-61-54      1   48   73  -0.160  -0.270        0
  2744  2164-66-24      1   48   73  -0.160  -0.270        0
  2745  2164-71-41      1   48   73  -0.160  -0.270        0
  2746  2135-48-337    -2   48   74   0.070  -0.030        0
  2747  2135-56-24     -2   48   74   0.070  -0.030        0
  2748  2135-61-55     -2   48   74   0.070  -0.030        0
  2749  2135-66-26     -2   48   74   0.070  -0.030        0
  2750  2135-71-42     -2   48   74   0.070  -0.030        0
  2751  2238-56-23      1   47   72   0.080  -0.310        0
  2752  2334-22-67      2   46   71   0.240  -0.150        0
  2753  2334-26-349     2   46   71   0.240  -0.150        0
  2754  2334-33-60      2   46   71   0.240  -0.150        0
  2755  2334-42-363     2   46   71   0.240  -0.150        0
  2756  2334-48-274     2   46   71   0.240  -0.150        0
  2757  2334-55-321     2   46   71   0.240  -0.150        0
  2758  2334-60-319     2   46   71   0.240  -0.150        0
  2759  2334-65-326     2   46   71   0.240  -0.150        0
  2760  2334-71-14      2   46   71   0.240  -0.150        0
  2761  2334-71-42      2   46   71   0.240  -0.150        0
  2762  2334-71-365     2   46   71   0.240  -0.150        0
  2763  2225-55-321     1   47   71   0.350  -0.410        0
  2764  2223-55-279     1   47   71   0.380  -0.410        0
  2765  2223-61-47      1   47   71   0.380  -0.410        0
  2766  2223-66-32      1   47   71   0.380  -0.410        0
  2767  2223-71-14      1   47   71   0.380  -0.410        0
  2768  2223-71-365     1   47   71   0.380  -0.410        0
  2769  2224-55-321     1   47   71   0.350  -0.380        0
  2770  2224-61-47      1   47   71   0.350  -0.380        0
  2771  2224-66-32      1   47   71   0.350  -0.380        0
  2772  2142-48-274     2   48   71   0.000  -0.180        0
  2773  2150-48-306     2   48   71  -0.040  -0.180        0
  2774  2150-55-321     2   48   71  -0.040  -0.180        0
  2775  2141-48-274     2   48   71   0.110   0.010        0
  2776  2141-55-321     2   48   71   0.110   0.010        0
  2777  2141-61-47      2   48   71   0.110   0.010        0
  2778  2141-71-14      2   48   71   0.110   0.010        0
  2779  2141-71-365     2   48   71   0.110   0.010        0
  2780  2140-48-274     2   48   71   0.000   0.400        0
  2781  2140-55-321     2   48   71   0.000   0.400        0
  2782  2140-66-18     -2   48   71   0.000   0.400        0
  2783  2209-27-11      2   47   72   0.310   0.210        0
  2784  2209-31-351     2   47   72   0.310   0.210        0
  2785  2209-37-343     2   47   72   0.310   0.210        0
  2786  2208-56-23      1   47   72   0.460   0.210        0
  2787  2208-60-321     1   47   72   0.460   0.210        0
  2788  2208-65-299     1   47   72   0.460   0.210        0
  2789  2208-71-32      1   47   72   0.460   0.210        0
  2790  2208-71-365     1   47   72   0.460   0.210        0
  2791  2206-48-274    -2   47   72   0.460   0.310        0
  2792  2206-55-321    -2   47   72   0.460   0.310        0
  2793  2206-61-47     -2   47   72   0.460   0.310        0
  2794  2206-71-14     -2   47   72   0.460   0.310        0
  2795  2206-71-365    -2   47   72   0.460   0.310        0
  2796  2182-55-321     1   48   72  -0.270  -0.340        0
  2797  2174-55-279     1   48   72  -0.230  -0.310        0
  2798  2174-60-319     1   48   72  -0.230  -0.310        0
  2799  2174-65-326     1   48   72  -0.230  -0.310        0
  2800  2174-71-14      1   48   72  -0.230  -0.310        0
  2801  2174-71-365     1   48   72  -0.230  -0.310        0
  2802  2181-55-321     1   48   72  -0.270  -0.270        0
  2803  2181-61-47      1   48   72  -0.270  -0.270        0
  2804  2139-1-357      1   48   72   0.000  -0.080        0
  2805  2138-48-274     1   48   72   0.000   0.310        0
  2806  2138-55-321     1   48   72   0.000   0.310        0
  2807  2138-61-47      1   48   72   0.000   0.310        0
  2808  2138-66-24      1   48   72   0.000   0.310        0
  2809  2138-71-14      1   48   72   0.000   0.310        0
  2810  2138-71-365     1   48   72   0.000   0.310        0
  2811  2253-16-361     1   47   70  -0.230  -0.320        0
  2812  2251-48-274    -2   47   71  -0.230  -0.480        0
  2813  2251-55-321    -2   47   71  -0.230  -0.480        0
  2814  2314-12-116    -2   46   69   0.280   0.420        0
  2815  2314-22-67      2   46   69   0.280   0.420        0
  2816  2314-33-60      2   46   69   0.280   0.420        0
  2817  2290-7-322      1   46   69   0.470   0.160        0
  2818  2290-10-32      1   46   69   0.470   0.160        0
  2819  2290-42-364     1   46   69   0.470   0.160        0
  2820  2290-48-355     1   46   69   0.470   0.160        0
  2821  2290-55-348     1   46   69   0.470   0.160        0
  2822  2290-65-354     1   46   69   0.470   0.160        0
  2823  2290-71-42      1   46   69   0.470   0.160        0
  2824  2290-71-365     1   46   69   0.470   0.160        0
  2825  2286-42-357    -2   47   69  -0.490   0.450        0
  2826  2286-48-355    -2   47   69  -0.490   0.450        0
  2827  2286-61-3      -2   47   69  -0.490   0.450        0
  2828  2286-66-45     -2   47   69  -0.490   0.450        0
  2829  2287-42-357     1   47   69  -0.490   0.250        0
  2830  2287-61-3       1   47   69  -0.490   0.250        0
  2831  2287-71-42      1   47   69  -0.490   0.250        0
  2832  2287-71-365     1   47   69  -0.490   0.250        0
  2833  2278-22-67     -2   47   69  -0.460   0.190        0
  2834  2278-26-362    -2   47   69  -0.460   0.190        0
  2835  2278-31-335    -2   47   69  -0.460   0.190        0
  2836  2278-33-60     -2   47   69  -0.460   0.190        0
  2837  2278-48-274    -2   47   69  -0.460   0.190        0
  2838  2129-66-40      2   48   69   0.110   0.000        0
  2839  2129-71-42      2   48   69   0.110   0.000        0
  2840  2129-71-365     2   48   69   0.110   0.000        0
  2841  2146-7-1        1   48   69   0.000   0.190        0
  2842  2146-11-86      1   48   69   0.000   0.190        0
  2843  2146-22-67      1   48   69   0.000   0.190        0
  2844  2146-37-263     1   48   69   0.000   0.190        0
  2845  2147-42-363     1   48   69   0.000   0.160        0
  2846  2147-48-362     1   48   69   0.000   0.160        0
  2847  2147-55-349     1   48   69   0.000   0.160        0
  2848  2145-2-132      1   48   69   0.000   0.450        0
  2849  2144-2-132      1   48   70   0.000   0.200        0
  2850  2126-48-274     2   48   70  -0.310   0.330        0
  2851  2126-55-321     2   48   70  -0.310   0.330        0
  2852  2126-61-47      2   48   70  -0.310   0.330        0
  2853  2126-71-14      2   48   70  -0.310   0.330        0
  2854  2126-71-365     2   48   70  -0.310   0.330        0
  2855  2315-10-262     1   46   68   0.280   0.150        0
  2856  2288-10-262     2   47   68  -0.490   0.440        0
  2857  2248-56-23     -2   47   68  -0.030  -0.050        0
  2858  2239-16-361     1   47   68   0.080   0.020        0
  2859  2239-22-32      1   47   68   0.080   0.020        0
  2860  2239-27-10      1   47   68   0.080   0.020        0
  2861  2239-56-23      1   47   68   0.080   0.020        0
  2862  2267-56-25      1   47   67  -0.340  -0.120        0
  2863  2255-22-65      1   47   67  -0.220   0.430        0
  2864  2255-32-60      1   47   67  -0.220   0.430        0
  2865  2255-38-60      1   47   67  -0.220   0.430        0
  2866  2240-56-25      1   47   68  -0.030  -0.050        0
  2867  2240-66-32      1   47   68  -0.030  -0.050        0
  2868  2240-71-54      1   47   68  -0.030  -0.050        0
  2869  2114-61-49      2   48   68  -0.380   0.250        0
  2870  2114-66-40      2   48   68  -0.380   0.250        0
  2871  2114-71-42      2   48   68  -0.380   0.250        0
  2872  2114-71-365     2   48   68  -0.380   0.250        0
  2873  2191-56-23      1   48   68  -0.380   0.180        0
  2874  2191-61-61      1   48   68  -0.380   0.180        0
  2875  2191-66-25      1   48   68  -0.380   0.180        0
  2876  2210-48-334     1   47   69   0.460  -0.460        0
  2877  2210-55-321     1   47   69   0.460  -0.460        0
  2878  2210-61-47      1   47   69   0.460  -0.460        0
  2879  2210-66-24      1   47   69   0.460  -0.460        0
  2880  2210-71-42      1   47   69   0.460  -0.460        0
  2881  2210-71-365     1   47   69   0.460  -0.460        0
  2882  2162-48-274     2   48   68  -0.150   0.180        0
  2883  2162-65-354     2   48   68  -0.150   0.180        0
  2884  2162-71-42      2   48   68  -0.150   0.180        0
  2885  2162-71-365     2   48   68  -0.150   0.180        0
  2886  2298-61-48     -3   46   66   0.390  -0.390        0
  2887  2298-66-24     -3   46   66   0.390  -0.390        0
  2888  2298-71-14     -3   46   66   0.390  -0.390        0
  2889  2298-71-365    -3   46   66   0.390  -0.390        0
  2890  2250-22-69      2   47   65  -0.150   0.160        0
  2891  2250-27-61      2   47   65  -0.150   0.160        0
  2892  2227-42-363    -3   47   65   0.310  -0.300        0
  2893  2227-48-365    -3   47   65   0.310  -0.300        0
  2894  2227-55-349    -3   47   65   0.310  -0.300        0
  2895  2227-61-54     -3   47   65   0.310  -0.300        0
  2896  2227-66-45     -3   47   65   0.310  -0.300        0
  2897  2227-71-49     -3   47   65   0.310  -0.300        0
  2898  2227-71-365    -3   47   65   0.310  -0.300        0
  2899  2152-22-68      1   48   66  -0.040   0.170        0
  2900  2263-10-144     1   47   63  -0.300  -0.090        0
  2901  2276-22-61     -2   47   63  -0.340  -0.020        0
  2902  2276-26-301    -2   47   63  -0.340  -0.020        0
  2903  2276-48-362    -2   47   63  -0.340  -0.020        0
  2904  2276-55-349    -2   47   63  -0.340  -0.020        0
  2905  2276-61-33     -2   47   63  -0.340  -0.020        0
  2906  2276-66-32     -2   47   63  -0.340  -0.020        0
  2907  2276-71-14     -2   47   63  -0.340  -0.020        0
  2908  2276-71-41     -2   47   63  -0.340  -0.020        0
  2909  2276-71-365    -2   47   63  -0.340  -0.020        0
  2910  2229-61-33      2   47   63   0.350   0.440        0
  2911  2229-66-32      2   47   63   0.350   0.440        0
  2912  2229-71-14      2   47   63   0.350   0.440        0
  2913  2229-71-41      2   47   63   0.350   0.440        0
  2914  2229-71-365     2   47   63   0.350   0.440        0
  2915  2235-42-335     1   47   63   0.240   0.240        0
  2916  2130-8-49       1   48   63   0.080  -0.340        0
  2917  2130-12-58      1   48   63   0.080  -0.340        0
  2918  2130-17-87      1   48   63   0.080  -0.340        0
  2919  2130-22-79      1   48   63   0.080  -0.340        0
  2920  2130-32-60      1   48   63   0.080  -0.340        0
  2921  2130-42-363     1   48   63   0.080  -0.340        0
  2922  2130-48-362     1   48   63   0.080  -0.340        0
  2923  2153-48-362    -2   48   63  -0.040  -0.380        0
  2924  2153-55-349    -2   48   63  -0.040  -0.380        0
  2925  2153-61-33     -2   48   63  -0.040  -0.380        0
  2926  2153-71-41     -2   48   63  -0.040  -0.380        0
  2927  2153-71-365    -2   48   63  -0.040  -0.380        0
  2928  2217-66-32      1   47   64   0.390   0.280        0
  2929  2231-22-65      1   47   64   0.280  -0.340        0
  2930  2231-42-363     1   47   64   0.280  -0.340        0
  2931  2231-48-362     1   47   64   0.280  -0.340        0
  2932  2231-55-349     1   47   64   0.280  -0.340        0
  2933  2231-61-54      1   47   64   0.280  -0.340        0
  2934  2231-66-49      1   47   64   0.280  -0.340        0
  2935  2231-71-41      1   47   64   0.280  -0.340        0
  2936  2231-71-365     1   47   64   0.280  -0.340        0
  2937  2228-42-363    -2   47   64   0.310  -0.300        0
  2938  2228-48-362    -2   47   64   0.310  -0.300        0
  2939  2228-55-349    -2   47   64   0.310  -0.300        0
  2940  2228-61-54     -2   47   64   0.310  -0.300        0
  2941  2228-66-49     -2   47   64   0.310  -0.300        0
  2942  2228-71-41     -2   47   64   0.310  -0.300        0
  2943  2228-71-365    -2   47   64   0.310  -0.300        0
  2944  2056-12-58      1   49   64  -0.190  -0.080        0
  2945  2056-22-66      1   49   64  -0.190  -0.080        0
  2946  2056-27-61      1   49   64  -0.190  -0.080        0
  2947  2032-7-32       1   49   63   0.040   0.270        0
  2948  2032-12-58      1   49   63   0.040   0.270        0
  2949  2032-32-83      1   49   63   0.040   0.270        0
  2950  2033-42-363    -2   49   63   0.040   0.270        0
  2951  2033-48-362    -2   49   63   0.040   0.270        0
  2952  2033-56-34     -2   49   63   0.040   0.270        0
  2953  2033-61-56     -2   49   63   0.040   0.270        0
  2954  2033-66-54     -2   49   63   0.040   0.270        0
  2955  2033-71-49     -2   49   63   0.040   0.270        0
  2956  2033-71-365    -2   49   63   0.040   0.270        0
  2957  2000-37-34      1   50   63  -0.470   0.180        0
  2958  2000-55-349     1   50   63  -0.470   0.180        0
  2959  2004-48-357     2   49   63   0.490   0.270        0
  2960  2004-71-49      2   49   63   0.490   0.270        0
  2961  2004-71-365     2   49   63   0.490   0.270        0
  2962  2019-17-82     -2   49   64   0.300   0.020        0
  2963  2019-22-69     -2   49   64   0.300   0.020        0
  2964  2019-42-335    -2   49   64   0.300   0.020        0
  2965  2019-48-365    -2   49   64   0.300   0.020        0
  2966  2019-66-40     -2   49   64   0.300   0.020        0
  2967  2019-71-49     -2   49   64   0.300   0.020        0
  2968  2019-71-365    -2   49   64   0.300   0.020        0
  2969  2015-66-40      2   49   64   0.300  -0.080        0
  2970  2015-71-49      2   49   64   0.300  -0.080        0
  2971  2015-71-365     2   49   64   0.300  -0.080        0
  2972  2023-42-363    -3   49   64   0.300  -0.010        0
  2973  2023-48-365    -3   49   64   0.300  -0.010        0
  2974  2023-55-349    -3   49   64   0.300  -0.010        0
  2975  2023-61-54     -3   49   64   0.300  -0.010        0
  2976  2023-71-49     -3   49   64   0.300  -0.010        0
  2977  2023-71-365    -3   49   64   0.300  -0.010        0
  2978  2060-48-365    -2   49   66  -0.230   0.460        0
  2979  2060-55-356    -2   49   66  -0.230   0.460        0
  2980  2060-61-54     -2   49   66  -0.230   0.460        0
  2981  2060-66-19     -2   49   66  -0.230   0.460        0
  2982  2060-71-42     -2   49   66  -0.230   0.460        0
  2983  2060-71-365    -2   49   66  -0.230   0.460        0
  2984  2115-22-66      2   48   65   0.270   0.190        0
  2985  2105-42-363    -2   48   65   0.350   0.130        0
  2986  2105-48-362    -2   48   65   0.350   0.130        0
  2987  2105-56-33     -2   48   65   0.350   0.130        0
  2988  2105-61-33     -2   48   65   0.350   0.130        0
  2989  2105-66-32     -2   48   65   0.350   0.130        0
  2990  2105-71-42     -2   48   65   0.350   0.130        0
  2991  2105-71-365    -2   48   65   0.350   0.130        0
  2992  2098-65-354     2   48   65   0.380   0.130        0
  2993  2098-71-42      2   48   65   0.380   0.130        0
  2994  2098-71-365     2   48   65   0.380   0.130        0
  2995  2103-42-363    -2   48   65   0.350   0.000        0
  2996  2103-48-362    -2   48   65   0.350   0.000        0
  2997  2103-61-33     -2   48   65   0.350   0.000        0
  2998  2103-66-32     -2   48   65   0.350   0.000        0
  2999  2103-71-42     -2   48   65   0.350   0.000        0
  3000  2103-71-365    -2   48   65   0.350   0.000        0
  3001  2055-22-66      1   49   65  -0.200   0.420        0
  3002  2055-32-83      1   49   65  -0.200   0.420        0
  3003  2014-12-66      1   49   66   0.340   0.000        0
  3004  2014-22-69      1   49   66   0.340   0.000        0
  3005  2014-27-3       1   49   66   0.340   0.000        0
  3006  2014-42-363     1   49   66   0.340   0.000        0
  3007  2014-48-357     1   49   66   0.340   0.000        0
  3008  2014-66-19      1   49   66   0.340   0.000        0
  3009  2014-71-42      1   49   66   0.340   0.000        0
  3010  2014-71-365     1   49   66   0.340   0.000        0
  3011  2013-42-363    -2   49   66   0.340  -0.030        0
  3012  2013-48-357    -2   49   66   0.340  -0.030        0
  3013  2013-55-350    -2   49   66   0.340  -0.030        0
  3014  2013-61-33     -2   49   66   0.340  -0.030        0
  3015  2013-66-19     -2   49   66   0.340  -0.030        0
  3016  2013-71-42     -2   49   66   0.340  -0.030        0
  3017  2013-71-365    -2   49   66   0.340  -0.030        0
  3018  1974-22-79      1   50   66  -0.160  -0.030        0
  3019  1974-26-307     1   50   66  -0.160  -0.030        0
  3020  1974-42-363     1   50   66  -0.160  -0.030        0
  3021  1974-48-357     1   50   66  -0.160  -0.030        0
  3022  1966-42-363    -2   50   66  -0.090  -0.160        0
  3023  1966-48-350    -2   50   66  -0.090  -0.160        0
  3024  1966-55-350    -2   50   66  -0.090  -0.160        0
  3025  1966-61-33     -2   50   66  -0.090  -0.160        0
  3026  1966-66-19     -2   50   66  -0.090  -0.160        0
  3027  1966-71-49     -2   50   66  -0.090  -0.160        0
  3028  1966-71-365    -2   50   66  -0.090  -0.160        0
  3029  1972-71-49      2   50   66  -0.160   0.010        0
  3030  1972-71-365     2   50   66  -0.160   0.010        0
  3031  2036-11-305     1   49   68   0.030   0.410        0
  3032  2035-48-365    -3   49   68   0.030   0.440        0
  3033  2035-56-18     -3   49   68   0.030   0.440        0
  3034  2035-61-54     -3   49   68   0.030   0.440        0
  3035  2035-66-45     -3   49   68   0.030   0.440        0
  3036  2035-71-42     -3   49   68   0.030   0.440        0
  3037  2035-71-365    -3   49   68   0.030   0.440        0
  3038  1999-22-69      2   50   67  -0.470  -0.080        0
  3039  1999-26-349     2   50   67  -0.470  -0.080        0
  3040  1999-32-73      2   50   67  -0.470  -0.080        0
  3041  1999-42-363     2   50   67  -0.470  -0.080        0
  3042  1999-48-357     2   50   67  -0.470  -0.080        0
  3043  1999-55-353     2   50   67  -0.470  -0.080        0
  3044  1999-60-309     2   50   67  -0.470  -0.080        0
  3045  1999-66-28      2   50   67  -0.470  -0.080        0
  3046  1999-71-42      2   50   67  -0.470  -0.080        0
  3047  1999-71-365     2   50   67  -0.470  -0.080        0
  3048  1957-12-66      1   50   67   0.030   0.180        0
  3049  1957-22-79      1   50   67   0.030   0.180        0
  3050  1957-27-3       1   50   67   0.030   0.180        0
  3051  1957-32-60      1   50   67   0.030   0.180        0
  3052  1957-42-363     1   50   67   0.030   0.180        0
  3053  1957-48-357     1   50   67   0.030   0.180        0
  3054  1957-55-353     1   50   67   0.030   0.180        0
  3055  1957-60-306     1   50   67   0.030   0.180        0
  3056  1957-66-19      1   50   67   0.030   0.180        0
  3057  1957-71-42      1   50   67   0.030   0.180        0
  3058  1957-71-365     1   50   67   0.030   0.180        0
  3059  2125-48-306     1   48   70   0.110   0.460        0
  3060  2125-55-321     1   48   70   0.110   0.460        0
  3061  2086-48-274     2   48   70   0.460   0.360        0
  3062  2086-56-48      2   48   70   0.460   0.360        0
  3063  2086-61-47      2   48   70   0.460   0.360        0
  3064  2086-66-26      2   48   70   0.460   0.360        0
  3065  2086-71-14      2   48   70   0.460   0.360        0
  3066  2086-71-365     2   48   70   0.460   0.360        0
  3067  2102-26-349    -2   48   70   0.340  -0.260        0
  3068  2102-48-274    -2   48   70   0.340  -0.260        0
  3069  2102-55-321    -2   48   70   0.340  -0.260        0
  3070  2102-60-319    -2   48   70   0.340  -0.260        0
  3071  2102-66-1      -2   48   70   0.340  -0.260        0
  3072  2102-71-42     -2   48   70   0.340  -0.260        0
  3073  2102-71-365    -2   48   70   0.340  -0.260        0
  3074  2054-39-31     -2   49   70  -0.200  -0.350        0
  3075  2054-48-357    -2   49   70  -0.200  -0.350        0
  3076  2054-55-349    -2   49   70  -0.200  -0.350        0
  3077  2054-61-3      -2   49   70  -0.200  -0.350        0
  3078  2054-66-40     -2   49   70  -0.200  -0.350        0
  3079  2054-71-42     -2   49   70  -0.200  -0.350        0
  3080  2054-71-365    -2   49   70  -0.200  -0.350        0
  3081  2063-22-69      1   49   70  -0.160   0.430        0
  3082  1996-11-86      1   50   69  -0.470   0.450        0
  3083  1997-22-60      1   50   69  -0.470   0.420        0
  3084  1997-32-60      1   50   69  -0.470   0.420        0
  3085  1997-55-349     1   50   69  -0.470   0.420        0
  3086  1997-65-354     1   50   69  -0.470   0.420        0
  3087  1997-71-42      1   50   69  -0.470   0.420        0
  3088  1997-71-365     1   50   69  -0.470   0.420        0
  3089  1949-48-334     1   50   70  -0.010  -0.420        0
  3090  1949-56-17      1   50   70  -0.010  -0.420        0
  3091  1942-56-17     -2   50   70   0.100  -0.450        0
  3092  1942-61-53     -2   50   70   0.100  -0.450        0
  3093  1942-66-19     -2   50   70   0.100  -0.450        0
  3094  1942-71-42     -2   50   70   0.100  -0.450        0
  3095  1942-71-365    -2   50   70   0.100  -0.450        0
  3096  1943-33-314     2   50   68   0.100  -0.110        0
  3097  2078-65-355     2   49   72  -0.390   0.470        0
  3098  2078-71-42      2   49   72  -0.390   0.470        0
  3099  2078-71-365     2   49   72  -0.390   0.470        0
  3100  2072-16-364     1   49   72  -0.390  -0.180        0
  3101  2072-27-10      1   49   72  -0.390  -0.180        0
  3102  2030-42-362    -2   49   72   0.070   0.380        0
  3103  2030-48-357    -2   49   72   0.070   0.380        0
  3104  2030-55-348    -2   49   72   0.070   0.380        0
  3105  2030-61-3      -2   49   72   0.070   0.380        0
  3106  2030-65-355    -2   49   72   0.070   0.380        0
  3107  2030-71-42     -2   49   72   0.070   0.380        0
  3108  2030-71-365    -2   49   72   0.070   0.380        0
  3109  2082-22-32     -2   48   71   0.490   0.170        0
  3110  2081-8-101      2   48   71   0.460   0.340        0
  3111  2081-12-109     2   48   71   0.460   0.340        0
  3112  2081-22-68      2   48   71   0.460   0.340        0
  3113  2081-42-364     2   48   71   0.460   0.340        0
  3114  2081-56-18      2   48   71   0.460   0.340        0
  3115  2081-71-13      2   48   71   0.460   0.340        0
  3116  2081-71-365     2   48   71   0.460   0.340        0
  3117  2101-8-51       1   48   71   0.340  -0.120        0
  3118  2101-11-86      1   48   71   0.340  -0.120        0
  3119  2101-22-32      1   48   71   0.340  -0.120        0
  3120  2101-27-10      1   48   71   0.340  -0.120        0
  3121  1986-27-81     -2   50   71  -0.320   0.010        0
  3122  1986-42-362    -2   50   71  -0.320   0.010        0
  3123  1986-48-334    -2   50   71  -0.320   0.010        0
  3124  1986-55-321    -2   50   71  -0.320   0.010        0
  3125  1986-61-47     -2   50   71  -0.320   0.010        0
  3126  1986-66-32     -2   50   71  -0.320   0.010        0
  3127  1986-71-14     -2   50   71  -0.320   0.010        0
  3128  1986-71-42     -2   50   71  -0.320   0.010        0
  3129  1986-71-365    -2   50   71  -0.320   0.010        0
  3130  1956-32-83      1   50   72   0.020  -0.300        0
  3131  1956-37-34      1   50   72   0.020  -0.300        0
  3132  1948-48-274    -2   50   72   0.060   0.480        0
  3133  2117-8-182      2   48   75   0.220  -0.480        0
  3134  2093-66-26     -2   49   75  -0.470  -0.480        0
  3135  2071-16-364     2   49   73  -0.390  -0.100        0
  3136  2053-56-33      1   49   73  -0.200  -0.460        0
  3137  2053-65-355     1   49   73  -0.200  -0.460        0
  3138  2053-71-43      1   49   73  -0.200  -0.460        0
  3139  2053-71-365     1   49   73  -0.200  -0.460        0
  3140  2046-61-3       1   49   73  -0.090  -0.200        0
  3141  2046-65-355     1   49   73  -0.090  -0.200        0
  3142  2046-71-49      1   49   73  -0.090  -0.200        0
  3143  2046-71-365     1   49   73  -0.090  -0.200        0
  3144  2029-66-45      1   49   73   0.100  -0.390        0
  3145  2029-71-43      1   49   73   0.100  -0.390        0
  3146  2029-71-365     1   49   73   0.100  -0.390        0
  3147  2026-71-43      1   49   73   0.100  -0.170        0
  3148  2026-71-365     1   49   73   0.100  -0.170        0
  3149  2028-71-43     -2   49   73   0.100  -0.130        0
  3150  2028-71-365    -2   49   73   0.100  -0.130        0
  3151  2048-56-33      2   49   73  -0.160   0.450        0
  3152  2048-65-355     2   49   73  -0.160   0.450        0
  3153  2048-71-49      2   49   73  -0.160   0.450        0
  3154  2048-71-365     2   49   73  -0.160   0.450        0
  3155  2049-55-347     2   49   73  -0.160   0.290        0
  3156  2049-65-355     2   49   73  -0.160   0.290        0
  3157  2049-71-43      2   49   73  -0.160   0.290        0
  3158  2049-71-365     2   49   73  -0.160   0.290        0
  3159  1995-22-69      1   50   73  -0.480   0.000        0
  3160  1995-26-280     1   50   73  -0.480   0.000        0
  3161  1995-42-355     1   50   73  -0.480   0.000        0
  3162  1995-48-357     1   50   73  -0.480   0.000        0
  3163  1995-56-17      1   50   73  -0.480   0.000        0
  3164  1995-61-3       1   50   73  -0.480   0.000        0
  3165  1995-65-355     1   50   73  -0.480   0.000        0
  3166  1995-71-43      1   50   73  -0.480   0.000        0
  3167  1995-71-365     1   50   73  -0.480   0.000        0
  3168  1947-22-79      1   50   73   0.060   0.000        0
  3169  1947-26-349     1   50   73   0.060   0.000        0
  3170  1947-32-73      1   50   73   0.060   0.000        0
  3171  1947-39-31      1   50   73   0.060   0.000        0
  3172  1947-48-355     1   50   73   0.060   0.000        0
  3173  1947-55-348     1   50   73   0.060   0.000        0
  3174  1947-61-3       1   50   73   0.060   0.000        0
  3175  1947-66-1       1   50   73   0.060   0.000        0
  3176  1947-71-43      1   50   73   0.060   0.000        0
  3177  1947-71-365     1   50   73   0.060   0.000        0
  3178  1985-56-25     -2   50   74  -0.320  -0.420        0
  3179  1985-66-33     -2   50   74  -0.320  -0.420        0
  3180  1985-71-42     -2   50   74  -0.320  -0.420        0
  3181  2017-42-363    -2   50   73  -0.360   0.130        0
  3182  2017-48-337    -2   50   73  -0.360   0.130        0
  3183  2017-56-24     -2   50   73  -0.360   0.130        0
  3184  2017-61-55     -2   50   73  -0.360   0.130        0
  3185  2017-66-24     -2   50   73  -0.360   0.130        0
  3186  2017-71-42     -2   50   73  -0.360   0.130        0
  3187  1941-16-364     1   50   75   0.100  -0.410        0
  3188  2339-1-365      2   46   75   0.080   0.460        0
  3189  2339-12-113     2   46   75   0.080   0.460        0
  3190  2339-22-74      2   46   75   0.080   0.460        0
  3191  2435-11-80      2   45   78  -0.460  -0.330        0
  3192  2435-22-72      2   45   78  -0.460  -0.330        0
  3193  2443-48-336     2   45   78  -0.420  -0.230        0
  3194  2443-56-20      2   45   78  -0.420  -0.230        0
  3195  2443-61-54      2   45   78  -0.420  -0.230        0
  3196  2443-66-24      2   45   78  -0.420  -0.230        0
  3197  2443-71-42      2   45   78  -0.420  -0.230        0
  3198  2379-22-74      2   46   82  -0.470  -0.490        0
  3199  2379-42-356     2   46   82  -0.470  -0.490        0
  3200  2379-48-336     2   46   82  -0.470  -0.490        0
  3201  2379-56-19      2   46   82  -0.470  -0.490        0
  3202  2379-61-55      2   46   82  -0.470  -0.490        0
  3203  2379-66-27      2   46   82  -0.470  -0.490        0
  3204  2379-71-42      2   46   82  -0.470  -0.490        0
  3205  2375-42-357     2   46   81  -0.430   0.410        0
  3206  2375-48-350     2   46   81  -0.430   0.410        0
  3207  2375-55-348     2   46   81  -0.430   0.410        0
  3208  2375-61-48      2   46   81  -0.430   0.410        0
  3209  2375-65-350     2   46   81  -0.430   0.410        0
  3210  2375-71-55      2   46   81  -0.430   0.410        0
  3211  2375-71-365     2   46   81  -0.430   0.410        0
  3212  2338-22-74      2   46   81   0.070   0.180        0
  3213  2338-48-355     2   46   81   0.070   0.180        0
  3214  2338-56-5       2   46   81   0.070   0.180        0
  3215  2338-61-48      2   46   81   0.070   0.180        0
  3216  2338-65-350     2   46   81   0.070   0.180        0
  3217  2338-71-55      2   46   81   0.070   0.180        0
  3218  2338-71-365     2   46   81   0.070   0.180        0
  3219  2205-22-74      3   47   85   0.440   0.250        0
  3220  2200-22-85      3   47   86   0.480  -0.490        0
  3221  2189-61-55      3   48   86  -0.370   0.420        0
  3222  2173-61-60      2   48   84  -0.250  -0.080        0
  3223  2323-22-74      2   46   81   0.220   0.090        0
  3224  2193-48-336     1   48   81  -0.400  -0.270        0
  3225  2193-56-19      1   48   81  -0.400  -0.270        0
  3226  2193-61-55      1   48   81  -0.400  -0.270        0
  3227  2193-66-27      1   48   81  -0.400  -0.270        0
  3228  2193-71-42      1   48   81  -0.400  -0.270        0
  3229  2100-12-113     2   48   82   0.090   0.160        0
  3230  2100-22-75      2   48   82   0.090   0.160        0
  3231  2100-42-357     2   48   82   0.090   0.160        0
  3232  2100-48-336     2   48   82   0.090   0.160        0
  3233  2100-55-347     2   48   82   0.090   0.160        0
  3234  2100-61-48      2   48   82   0.090   0.160        0
  3235  2100-65-356     2   48   82   0.090   0.160        0
  3236  2100-71-42      2   48   82   0.090   0.160        0
  3237  2100-71-54      2   48   82   0.090   0.160        0
  3238  2100-71-365     2   48   82   0.090   0.160        0
  3239  2324-27-11      2   46   80   0.220   0.370        0
  3240  2324-38-91      2   46   80   0.220   0.370        0
  3241  2324-42-356     2   46   80   0.220   0.370        0
  3242  2324-56-20      2   46   80   0.220   0.370        0
  3243  2324-66-28      2   46   80   0.220   0.370        0
  3244  2324-71-63      2   46   80   0.220   0.370        0
  3245  2285-22-74      2   46   80   0.490   0.010        0
  3246  2285-32-67      2   46   80   0.490   0.010        0
  3247  2285-38-60      2   46   80   0.490   0.010        0
  3248  2285-71-63      2   46   80   0.490   0.010        0
  3249  2119-42-357     1   48   80   0.180  -0.210        0
  3250  2119-48-355     1   48   80   0.180  -0.210        0
  3251  2119-55-348     1   48   80   0.180  -0.210        0
  3252  2119-61-49      1   48   80   0.180  -0.210        0
  3253  2119-71-55      1   48   80   0.180  -0.210        0
  3254  2119-71-365     1   48   80   0.180  -0.210        0
  3255  2184-33-274    -2   48   81  -0.320  -0.400        0
  3256  2179-33-26      2   48   77  -0.390  -0.040        0
  3257  2179-48-337     2   48   77  -0.390  -0.040        0
  3258  2179-56-20      2   48   77  -0.390  -0.040        0
  3259  2179-66-28      2   48   77  -0.390  -0.040        0
  3260  2297-42-355     2   46   77   0.420  -0.500        0
  3261  2297-48-336     2   46   77   0.420  -0.500        0
  3262  2297-56-20      2   46   77   0.420  -0.500        0
  3263  2297-61-54      2   46   77   0.420  -0.500        0
  3264  2297-66-21      2   46   77   0.420  -0.500        0
  3265  2297-71-41      2   46   77   0.420  -0.500        0
  3266  2185-42-357     2   48   76  -0.430   0.020        0
  3267  2185-48-355     2   48   76  -0.430   0.020        0
  3268  2185-55-347     2   48   76  -0.430   0.020        0
  3269  2185-66-45      2   48   76  -0.430   0.020        0
  3270  2185-71-344     2   48   76  -0.430   0.020        0
  3271  2134-16-361     2   48   76   0.030   0.310        0
  3272  2134-22-32      2   48   76   0.030   0.310        0
  3273  2134-27-11      2   48   76   0.030   0.310        0
  3274  2134-48-357     2   48   76   0.030   0.310        0
  3275  2134-55-347     2   48   76   0.030   0.310        0
  3276  2134-66-45      2   48   76   0.030   0.310        0
  3277  2134-71-344     2   48   76   0.030   0.310        0
  3278  2091-61-55      1   48   76   0.410  -0.270        0
  3279  2091-66-26      1   48   76   0.410  -0.270        0
  3280  2091-71-55      1   48   76   0.410  -0.270        0
  3281  2097-48-337     1   48   74   0.410  -0.160        0
  3282  2097-56-23      1   48   74   0.410  -0.160        0
  3283  2097-66-26      1   48   74   0.410  -0.160        0
  3284  2097-71-55      1   48   74   0.410  -0.160        0
  3285  2068-12-281     1   49   77  -0.360  -0.460        0
  3286  2070-48-357     1   49   77  -0.400  -0.460        0
  3287  2070-55-348     1   49   77  -0.400  -0.460        0
  3288  2070-60-348     1   49   77  -0.400  -0.460        0
  3289  2070-66-1       1   49   77  -0.400  -0.460        0
  3290  2070-71-365     1   49   77  -0.400  -0.460        0
  3291  2027-39-31      1   49   75   0.100   0.400        0
  3292  2025-66-26      1   49   75   0.220   0.340        0
  3293  2025-71-55      1   49   75   0.220   0.340        0
  3294  2010-32-67      1   49   75   0.370  -0.380        0
  3295  1954-32-67      1   50   76  -0.140   0.480        0
  3296  1954-48-355     1   50   76  -0.140   0.480        0
  3297  1954-55-347     1   50   76  -0.140   0.480        0
  3298  1954-66-45      1   50   76  -0.140   0.480        0
  3299  1954-71-344     1   50   76  -0.140   0.480        0
  3300  1963-32-85      1   50   76  -0.020   0.150        0
  3301  1963-42-357     1   50   76  -0.020   0.150        0
  3302  1963-48-355     1   50   76  -0.020   0.150        0
  3303  1963-55-348     1   50   76  -0.020   0.150        0
  3304  1963-61-49      1   50   76  -0.020   0.150        0
  3305  1963-65-356     1   50   76  -0.020   0.150        0
  3306  1963-71-365     1   50   76  -0.020   0.150        0
  3307  2090-27-11      1   48   78   0.410   0.030        0
  3308  2065-66-45      2   49   78  -0.360   0.000        0
  3309  2065-71-365     2   49   78  -0.360   0.000        0
  3310  2003-71-365     1   49   78   0.480   0.430        0
  3311  1984-42-355     1   50   78  -0.330   0.360        0
  3312  1984-48-336     1   50   78  -0.330   0.360        0
  3313  2116-65-350     2   48   80   0.210  -0.310        0
  3314  2047-56-19      1   49   80  -0.170  -0.270        0
  3315  2047-61-55      1   49   80  -0.170  -0.270        0
  3316  2047-66-21      1   49   80  -0.170  -0.270        0
  3317  2044-56-19      1   49   79   0.020   0.170        0
  3318  2044-61-55      1   49   79   0.020   0.170        0
  3319  2044-66-21      1   49   79   0.020   0.170        0
  3320  2044-71-41      1   49   79   0.020   0.170        0
  3321  2018-34-212    -2   49   80   0.210  -0.470        0
  3322  2012-1-52       1   49   79   0.330  -0.220        0
  3323  2012-42-335     1   49   79   0.330  -0.220        0
  3324  2012-48-355     1   49   79   0.330  -0.220        0
  3325  2012-55-348     1   49   79   0.330  -0.220        0
  3326  2012-66-1       1   49   79   0.330  -0.220        0
  3327  2012-71-365     1   49   79   0.330  -0.220        0
  3328  1979-56-23      1   50   79  -0.290   0.170        0
  3329  1979-61-55      1   50   79  -0.290   0.170        0
  3330  2002-16-361     2   49   80   0.480   0.210        0
  3331  2002-27-12      2   49   80   0.480   0.210        0
  3332  1961-56-23      2   50   80   0.010  -0.340        0
  3333  1961-66-26      2   50   80   0.010  -0.340        0
  3334  1961-71-41      2   50   80   0.010  -0.340        0
  3335  2080-42-356     2   48   82   0.480   0.100        0
  3336  2080-48-350     2   48   82   0.480   0.100        0
  3337  2080-55-347     2   48   82   0.480   0.100        0
  3338  2080-66-45      2   48   82   0.480   0.100        0
  3339  2042-55-347     2   49   83  -0.030  -0.280        0
  3340  2042-65-356     2   49   83  -0.030  -0.280        0
  3341  2042-71-54      2   49   83  -0.030  -0.280        0
  3342  2042-71-365     2   49   83  -0.030  -0.280        0
  3343  1964-33-38     -2   50   82  -0.070  -0.290        0
  3344  1976-42-357     2   50   81  -0.260   0.090        0
  3345  1976-48-355     2   50   81  -0.260   0.090        0
  3346  1976-55-348     2   50   81  -0.260   0.090        0
  3347  1976-60-305     2   50   81  -0.260   0.090        0
  3348  1976-66-1       2   50   81  -0.260   0.090        0
  3349  1976-71-55      2   50   81  -0.260   0.090        0
  3350  1976-71-365     2   50   81  -0.260   0.090        0
  3351  1970-42-356     2   50   81  -0.180   0.190        0
  3352  1970-48-336     2   50   81  -0.180   0.190        0
  3353  1970-56-19      2   50   81  -0.180   0.190        0
  3354  2051-43-1       2   49   83  -0.220   0.470        0
  3355  2051-65-356     2   49   83  -0.220   0.470        0
  3356  2051-71-54      2   49   83  -0.220   0.470        0
  3357  2051-71-365     2   49   83  -0.220   0.470        0
  3358  1973-11-214     2   50   83  -0.220   0.300        0
  3359  1969-11-190     2   50   83  -0.190   0.340        0
  3360  1946-66-5       1   50   84   0.000   0.350        0
  3361  1946-71-22      1   50   84   0.000   0.350        0
  3362  1946-71-365     1   50   84   0.000   0.350        0
  3363  1967-27-87     -2   50   84   0.040   0.410        0
  3364  1967-42-356     2   50   84   0.040   0.410        0
  3365  1967-48-350     2   50   84   0.040   0.410        0
  3366  1967-55-347     2   50   84   0.040   0.410        0
  3367  1967-66-5      -2   50   84   0.040   0.410        0
  3368  1967-71-22     -2   50   84   0.040   0.410        0
  3369  1967-71-365    -2   50   84   0.040   0.410        0
  3370  1939-42-356    -2   50   84   0.040   0.410        0
  3371  1939-48-350    -2   50   84   0.040   0.410        0
  3372  1939-55-347    -2   50   84   0.040   0.410        0
  3373  1939-60-356    -2   50   84   0.040   0.410        0
  3374  1939-71-22      2   50   84   0.040   0.410        0
  3375  1939-71-365     2   50   84   0.040   0.410        0
  3376  1975-16-361     1   50   85  -0.270   0.190        0
  3377  1975-27-12      1   50   85  -0.270   0.190        0
  3378  1945-56-25      2   50   85   0.040   0.190        0
  3379  1945-61-54      2   50   85   0.040   0.190        0
  3380  1945-66-27      2   50   85   0.040   0.190        0
  3381  1945-71-41      2   50   85   0.040   0.190        0
  3382  1711-42-352     3   52   24   0.470   0.340        0
  3383  1711-48-350     3   52   24   0.470   0.340        0
  3384  1711-55-354     3   52   24   0.470   0.340        0
  3385  1711-61-21      3   52   24   0.470   0.340        0
  3386  1711-66-39      3   52   24   0.470   0.340        0
  3387  1711-71-7       3   52   24   0.470   0.340        0
  3388  1711-71-365     3   52   24   0.470   0.340        0
  3389  1555-27-24     -2   53   25  -0.180  -0.040        0
  3390  1555-31-348    -2   53   25  -0.180  -0.040        0
  3391  1555-37-341    -2   53   25  -0.180  -0.040        0
  3392  1555-48-348    -2   53   25  -0.180  -0.040        0
  3393  1555-56-27     -2   53   25  -0.180  -0.040        0
  3394  1555-60-319    -2   53   25  -0.180  -0.040        0
  3395  1555-65-301    -2   53   25  -0.180  -0.040        0
  3396  1555-71-11     -2   53   25  -0.180  -0.040        0
  3397  1555-71-365    -2   53   25  -0.240  -0.030        0
  3398  1428-11-1       3   58   24   0.140  -0.230        0
  3399  1428-17-11      3   58   24   0.140  -0.230        0
  3400  1428-22-12      3   58   24   0.140  -0.230        0
  3401  1428-32-85      3   58   24   0.140  -0.230        0
  3402  1383-1-106      3   60   25  -0.370   0.300        0
  3403  1383-7-337      3   60   25  -0.370   0.300        0
  3404  1383-12-361     3   60   25  -0.370   0.300        0
  3405  1819-38-13     -2   52   31  -0.470   0.240        0
  3406  1819-42-352    -2   52   31  -0.470   0.240        0
  3407  1819-55-354    -2   52   31  -0.470   0.240        0
  3408  1820-71-12      2   52   30  -0.470   0.460        0
  3409  1820-71-365     2   52   30  -0.470   0.460        0
  3410  1748-17-6      -2   52   31  -0.010   0.400        0
  3411  1748-21-335    -2   52   31  -0.010   0.400        0
  3412  1748-48-348    -2   52   31  -0.010   0.400        0
  3413  1748-60-305    -2   52   31  -0.010   0.400        0
  3414  1748-66-1      -2   52   31  -0.010   0.400        0
  3415  1748-71-8      -2   52   31  -0.010   0.400        0
  3416  1748-71-365    -2   52   31  -0.010   0.400        0
  3417  1903-71-365     2   51   29  -0.430   0.390        0
  3418  1862-71-365     2   51   29   0.110  -0.490        0
  3419  1861-65-364     2   51   29   0.110   0.030        0
  3420  1861-71-365     2   51   29   0.110   0.030        0
  3421  1833-71-365     3   51   29   0.410  -0.070        0
  3422  1770-71-365     3   52   29  -0.200   0.320        0
  3423  1758-71-365     2   52   29  -0.170  -0.490        0
  3424  1709-22-38     -2   52   29   0.450  -0.270        0
  3425  1709-42-352    -2   52   29   0.450  -0.270        0
  3426  1709-55-354    -2   52   29   0.450  -0.270        0
  3427  1709-65-344    -2   52   29   0.450  -0.270        0
  3428  1709-71-365    -2   52   29   0.450  -0.270        0
  3429  1700-71-365     3   52   29   0.410  -0.070        0
  3430  1828-71-365     3   51   30   0.450  -0.190        0
  3431  1698-71-365     3   52   30   0.450   0.360        0
  3432  1883-65-336     3   51   28  -0.120  -0.140        0
  3433  1883-71-365     3   51   28  -0.120  -0.140        0
  3434  1838-71-365     3   51   27   0.370  -0.220        0
  3435  1805-71-365     2   52   26  -0.400   0.430        0
  3436  1702-16-354    -2   52   27   0.370  -0.120        0
  3437  1702-42-352    -2   52   27   0.370  -0.120        0
  3438  1702-48-349    -2   52   27   0.370  -0.120        0
  3439  1702-55-354    -2   52   27   0.370  -0.120        0
  3440  1702-61-31     -2   52   27   0.370  -0.120        0
  3441  1702-65-344    -2   52   27   0.370  -0.120        0
  3442  1702-71-365     2   52   27   0.370  -0.120        0
  3443  1704-71-365     3   52   27   0.360  -0.380        0
  3444  1829-71-365     3   51   28   0.450  -0.240        0
  3445  1710-17-6      -2   52   27   0.410   0.470        0
  3446  1710-42-352    -2   52   27   0.410   0.470        0
  3447  1710-48-349    -2   52   27   0.410   0.470        0
  3448  1710-55-354    -2   52   27   0.410   0.470        0
  3449  1710-61-31     -2   52   27   0.410   0.470        0
  3450  1710-65-344    -2   52   27   0.410   0.470        0
  3451  1710-71-365     3   52   27   0.410   0.470        0
  3452  1703-71-365     2   52   28   0.370  -0.340        0
  3453  1663-12-305    -2   53   27  -0.210   0.370        0
  3454  1663-42-352    -2   53   27  -0.210   0.370        0
  3455  1663-48-349    -2   53   27  -0.210   0.370        0
  3456  1663-55-354    -2   53   27  -0.210   0.370        0
  3457  1663-61-31     -2   53   27  -0.210   0.370        0
  3458  1663-65-338    -2   53   27  -0.210   0.370        0
  3459  1663-71-365     3   53   27  -0.210   0.370        0
  3460  1667-71-365     3   53   27  -0.140   0.170        0
  3461  1686-71-365     3   53   30  -0.470  -0.160        0
  3462  1653-71-365     2   53   29   0.060   0.420        0
  3463  1634-71-365     3   53   29   0.400   0.380        0
  3464  1637-71-365     3   53   30   0.370   0.330        0
  3465  1635-71-365     3   53   29   0.400  -0.500        0
  3466  1584-17-6      -2   54   29   0.400  -0.500        0
  3467  1584-22-38     -2   54   29   0.400  -0.500        0
  3468  1584-27-27     -2   54   29   0.400  -0.500        0
  3469  1584-32-85     -2   54   29   0.400  -0.500        0
  3470  1584-37-34     -2   54   29   0.400  -0.500        0
  3471  1584-42-352    -2   54   29   0.400  -0.500        0
  3472  1584-48-348    -2   54   29   0.400  -0.500        0
  3473  1584-55-354    -2   54   29   0.400  -0.500        0
  3474  1584-60-323    -2   54   29   0.400  -0.500        0
  3475  1584-65-344    -2   54   29   0.400  -0.500        0
  3476  1584-71-365    -2   54   29   0.400  -0.500        0
  3477  1585-71-365     2   54   28   0.400   0.470        0
  3478  1592-71-365     2   54   29   0.320   0.380        0
  3479  1591-71-365     2   54   30   0.320  -0.490        0
  3480  1590-71-365     3   54   30   0.320   0.260        0
  3481  1650-71-365     2   53   31   0.100  -0.120        0
  3482  1684-48-275     3   52   34   0.500  -0.030        0
  3483  1684-66-20      3   52   34   0.500  -0.030        0
  3484  1685-48-275     3   52   34   0.500  -0.030        0
  3485  1685-66-20      3   52   34   0.500  -0.030        0
  3486  1496-21-355     2   56   37   0.400  -0.500        0
  3487  1496-27-27      2   56   37   0.400  -0.500        0
  3488  1496-32-85      2   56   37   0.400  -0.500        0
  3489  1496-36-91      2   56   37   0.400  -0.500        0
  3490  1496-56-19      2   56   37   0.400  -0.500        0
  3491  1491-56-19      2   56   37   0.440  -0.500        0
  3492  1501-16-309     3   56   38   0.290   0.320        0
  3493  1497-48-300     3   56   36   0.210   0.010        0
  3494  1497-55-318     3   56   36   0.210   0.010        0
  3495  1497-60-313     3   56   36   0.210   0.010        0
  3496  1497-65-364     3   56   36   0.210   0.010        0
  3497  1497-71-350     3   56   36   0.210   0.010        0
  3498  1498-48-300     2   56   36   0.210   0.010        0
  3499  1498-55-318     2   56   36   0.210   0.010        0
  3500  1498-60-313     2   56   36   0.210   0.010        0
  3501  1498-65-364     2   56   36   0.210   0.010        0
  3502  1498-71-350     2   56   36   0.210   0.010        0
  3503  1442-36-1      -2   58   32  -0.420   0.500        0
  3504  1442-42-349    -2   58   32  -0.420   0.500        0
  3505  1442-48-349    -2   58   32  -0.420   0.500        0
  3506  1442-55-353    -2   58   32  -0.420   0.500        0
  3507  1442-61-21     -2   58   32  -0.420   0.500        0
  3508  1473-10-213     3   57   38  -0.170   0.320        0
  3509  1407-22-38     -2   59   34  -0.080   0.380        0
  3510  1407-42-349    -2   59   34  -0.080   0.380        0
  3511  1407-48-349    -2   59   34  -0.080   0.380        0
  3512  1407-55-353    -2   59   34  -0.080   0.380        0
  3513  1407-61-21     -2   59   34  -0.080   0.380        0
  3514  1407-66-34     -2   59   34  -0.080   0.380        0
  3515  1407-71-365    -2   59   34  -0.080   0.380        0
  3516  1412-71-365     1   59   34  -0.270   0.380        0
  3517  1393-38-335     3   59   33   0.420  -0.470        0
  3518  1393-42-349     3   59   33   0.420  -0.470        0
  3519  1393-48-349     3   59   33   0.420  -0.470        0
  3520  1393-55-353     3   59   33   0.420  -0.470        0
  3521  1393-71-365     3   59   33   0.420  -0.470        0
  3522  1376-36-78     -2   60   33   0.190   0.370        0
  3523  1376-48-349    -2   60   33   0.190   0.370        0
  3524  1376-61-21     -2   60   33   0.190   0.370        0
  3525  1376-66-34     -2   60   33   0.190   0.370        0
  3526  1376-71-56     -2   60   33   0.190   0.370        0
  3527  1376-71-365     3   60   33   0.190   0.370        0
  3528  1361-71-362     2   61   34   0.220   0.470        0
  3529  1362-71-362     2   61   34   0.220   0.470        0
  3530  1421-71-362     2   60   32  -0.160   0.130        0
  3531  1403-66-34      3   59   31   0.150  -0.260        0
  3532  1403-71-56      3   59   31   0.150  -0.260        0
  3533  1403-71-365     3   59   31   0.150  -0.260        0
  3534  1388-71-362     2   60   31  -0.160  -0.040        0
  3535  1364-17-12      2   60   31   0.410   0.480        0
  3536  1364-38-335     2   60   31   0.410   0.480        0
  3537  1364-42-349     2   60   31   0.410   0.480        0
  3538  1364-55-353     2   60   31   0.410   0.480        0
  3539  1364-66-34      2   60   31   0.410   0.480        0
  3540  1364-71-365     2   60   31   0.410   0.480        0
  3541  1365-17-12     -2   60   30   0.370   0.310        0
  3542  1365-22-6      -2   60   30   0.370   0.310        0
  3543  1365-27-27     -2   60   30   0.370   0.310        0
  3544  1365-32-85     -2   60   30   0.370   0.310        0
  3545  1365-37-17     -2   60   30   0.370   0.310        0
  3546  1365-42-349    -2   60   30   0.370   0.310        0
  3547  1365-48-349    -2   60   30   0.370   0.310        0
  3548  1365-55-353    -2   60   30   0.370   0.310        0
  3549  1365-60-364    -2   60   30   0.370   0.310        0
  3550  1365-66-1      -2   60   30   0.370   0.310        0
  3551  1365-71-365    -2   60   30   0.370   0.310        0
  3552  1335-71-362     2   61   31   0.210  -0.040        0
  3553  1313-36-114    -2   62   31  -0.480   0.410        0
  3554  1313-42-349    -2   62   31  -0.480   0.410        0
  3555  1313-48-349    -2   62   31  -0.480   0.410        0
  3556  1313-55-353    -2   62   31  -0.480   0.410        0
  3557  1313-61-21     -2   62   31  -0.480   0.410        0
  3558  1313-66-13     -2   62   31  -0.480   0.410        0
  3559  1266-17-12     -2   62   31   0.360  -0.300        0
  3560  1266-38-335    -2   62   31   0.360  -0.300        0
  3561  1266-42-349    -2   62   31   0.360  -0.300        0
  3562  1266-48-349    -2   62   31   0.360  -0.300        0
  3563  1266-56-3      -2   62   31   0.360  -0.300        0
  3564  1266-61-21     -2   62   31   0.360  -0.300        0
  3565  1266-66-12     -2   62   31   0.360  -0.300        0
  3566  1266-71-56     -2   62   31   0.360  -0.300        0
  3567  1266-71-365     2   62   31   0.360  -0.300        0
  3568  1258-71-362     2   63   32  -0.410   0.130        0
  3569  1265-17-12     -2   62   32   0.290  -0.290        0
  3570  1265-38-335    -2   62   32   0.290  -0.290        0
  3571  1265-42-349    -2   62   32   0.290  -0.290        0
  3572  1265-48-349    -2   62   32   0.290  -0.290        0
  3573  1265-55-353    -2   62   32   0.290  -0.290        0
  3574  1265-66-34     -2   62   32   0.290  -0.290        0
  3575  1265-71-56     -2   62   32   0.290  -0.290        0
  3576  1265-71-365    -2   62   32   0.290  -0.290        0
  3577  1336-17-12     -2   61   34  -0.090   0.380        0
  3578  1336-38-335    -2   61   34  -0.090   0.380        0
  3579  1336-42-349    -2   61   34  -0.090   0.380        0
  3580  1336-48-349    -2   61   34  -0.090   0.380        0
  3581  1336-55-353    -2   61   34  -0.090   0.380        0
  3582  1336-71-40     -2   61   34  -0.090   0.380        0
  3583  1336-71-365    -2   61   34  -0.090   0.380        0
  3584  1337-42-349    -2   61   32  -0.090   0.490        0
  3585  1337-55-353    -2   61   32  -0.090   0.490        0
  3586  1337-66-27     -2   61   32  -0.090   0.490        0
  3587  1337-71-365    -2   61   32  -0.090   0.490        0
  3588  1340-36-38     -2   61   32  -0.130   0.490        0
  3589  1340-42-349    -2   61   32  -0.130   0.490        0
  3590  1340-48-349    -2   61   32  -0.130   0.490        0
  3591  1340-55-353    -2   61   32  -0.130   0.490        0
  3592  1340-66-10     -2   61   32  -0.130   0.490        0
  3593  1340-71-56     -2   61   32  -0.130   0.490        0
  3594  1340-71-365    -2   61   32  -0.130   0.490        0
  3595  1264-38-335    -2   62   33   0.250  -0.420        0
  3596  1264-42-349    -2   62   33   0.250  -0.420        0
  3597  1264-71-70     -2   62   33   0.250  -0.420        0
  3598  1264-71-365    -2   62   33   0.250  -0.420        0
  3599  1257-66-33      3   62   33   0.330   0.330        0
  3600  1257-71-56      3   62   33   0.330   0.330        0
  3601  1257-71-365     3   62   33   0.330   0.330        0
  3602  1371-56-31      3   60   39   0.190  -0.230        0
  3603  1371-66-56      3   60   39   0.190  -0.230        0
  3604  1371-71-50      3   60   39   0.190  -0.230        0
  3605  1371-71-365     3   60   39   0.190  -0.230        0
  3606  1370-34-198     2   60   39   0.230   0.130        0
  3607  1370-56-31      2   60   39   0.230   0.130        0
  3608  1370-66-56      2   60   39   0.230   0.130        0
  3609  1370-71-50      2   60   39   0.230   0.130        0
  3610  1370-71-365     2   60   39   0.230   0.130        0
  3611  1849-12-32     -2   51   62   0.290   0.170        0
  3612  1849-17-34     -2   51   62   0.290   0.170        0
  3613  1849-22-1      -2   51   62   0.290   0.170        0
  3614  1847-48-362     2   51   62   0.370   0.140        0
  3615  1847-56-34      2   51   62   0.370   0.140        0
  3616  1847-61-3       2   51   62   0.370   0.140        0
  3617  1847-66-1       2   51   62   0.370   0.140        0
  3618  1847-71-56      2   51   62   0.370   0.140        0
  3619  1847-71-365     2   51   62   0.370   0.140        0
  3620  1742-1-365      1   52   59   0.060  -0.050        0
  3621  1741-1-365      3   52   59   0.060   0.180        0
  3622  1766-1-365      1   52   60  -0.170  -0.080        0
  3623  1848-56-34      2   51   58   0.330   0.270        0
  3624  1848-65-336     1   51   58   0.330   0.270        0
  3625  1848-71-365     1   51   58   0.330   0.270        0
  3626  1901-2-36       2   51   57  -0.390   0.290        0
  3627  1912-1-365      1   50   57   0.450  -0.160        0
  3628  1929-1-365      1   50   57   0.300  -0.100        0
  3629  1902-1-365      1   51   57  -0.390  -0.260        0
  3630  1872-71-68      2   51   57   0.100   0.360        0
  3631  1872-71-365     2   51   57   0.100   0.360        0
  3632  1871-56-34      2   51   57   0.100   0.360        0
  3633  1832-17-37      3   51   57   0.450   0.190        0
  3634  1832-22-1       3   51   57   0.450   0.190        0
  3635  1832-32-49      3   51   57   0.450   0.190        0
  3636  1832-42-362     3   51   57   0.450   0.190        0
  3637  1832-48-362     3   51   57   0.450   0.190        0
  3638  1832-56-34      3   51   57   0.450   0.190        0
  3639  1832-61-3       3   51   57   0.450   0.190        0
  3640  1832-71-21      3   51   57   0.450   0.190        0
  3641  1832-71-365     3   51   57   0.450   0.190        0
  3642  1767-27-40     -2   52   58  -0.320   0.430        0
  3643  1767-42-363    -2   52   58  -0.320   0.430        0
  3644  1767-56-34     -2   52   58  -0.320   0.430        0
  3645  1818-65-336     2   52   58  -0.440  -0.350        0
  3646  1804-71-76      2   52   58  -0.360  -0.350        0
  3647  1804-71-365     2   52   58  -0.360  -0.350        0
  3648  1793-42-362    -2   52   58  -0.170  -0.250        0
  3649  1793-48-334    -2   52   58  -0.170  -0.250        0
  3650  1793-56-34     -2   52   58  -0.170  -0.250        0
  3651  1793-65-336    -2   52   58  -0.170  -0.250        0
  3652  1793-71-21     -2   52   58  -0.170  -0.250        0
  3653  1793-71-365    -2   52   58  -0.170  -0.250        0
  3654  1891-1-365      2   51   56  -0.280  -0.270        0
  3655  1891-11-38      2   51   56  -0.280  -0.270        0
  3656  1891-17-37      2   51   56  -0.280  -0.270        0
  3657  1690-32-32      2   53   59  -0.480   0.370        0
  3658  1690-34-32      2   53   59  -0.480   0.370        0
  3659  1690-42-362     2   53   59  -0.480   0.370        0
  3660  1690-48-362     2   53   59  -0.480   0.370        0
  3661  1690-56-34      2   53   59  -0.480   0.370        0
  3662  1690-61-3       2   53   59  -0.480   0.370        0
  3663  1690-71-21      2   53   59  -0.480   0.370        0
  3664  1690-71-365     2   53   59  -0.480   0.370        0
  3665  1697-56-34      1   52   59   0.480  -0.380        0
  3666  1697-65-336     1   52   59   0.480  -0.380        0
  3667  1697-71-21      1   52   59   0.480  -0.380        0
  3668  1697-71-365     1   52   59   0.480  -0.380        0
  3669  1638-22-30      2   53   60   0.360  -0.370        0
  3670  1638-27-48      2   53   60   0.360  -0.370        0
  3671  1638-32-49      2   53   60   0.360  -0.370        0
  3672  1638-37-49      2   53   60   0.360  -0.370        0
  3673  1638-42-363     2   53   60   0.360  -0.370        0
  3674  1642-1-365      3   53   61   0.250  -0.260        0
  3675  1642-8-48       3   53   61   0.250  -0.260        0
  3676  1626-1-365      3   54   61  -0.300   0.420        0
  3677  1625-26-349    -2   54   62  -0.410  -0.090        0
  3678  1625-32-49     -2   54   62  -0.410  -0.090        0
  3679  1625-42-362    -2   54   62  -0.410  -0.090        0
  3680  1625-48-362    -2   54   62  -0.410  -0.090        0
  3681  1625-56-34     -2   54   62  -0.410  -0.090        0
  3682  1625-61-3      -2   54   62  -0.410  -0.090        0
  3683  1508-12-54     -2   56   61  -0.380  -0.260        0
  3684  1508-17-33     -2   56   61  -0.380  -0.260        0
  3685  1508-22-26     -2   56   61  -0.380  -0.260        0
  3686  1508-27-15     -2   56   61  -0.380  -0.260        0
  3687  1508-32-49     -2   56   61  -0.380  -0.260        0
  3688  1508-43-5      -2   56   61  -0.380  -0.260        0
  3689  1508-48-364    -2   56   61  -0.380  -0.260        0
  3690  1508-56-34     -2   56   61  -0.380  -0.260        0
  3691  1508-61-3      -2   56   61  -0.380  -0.260        0
  3692  1508-71-49     -2   56   61  -0.380  -0.260        0
  3693  1508-71-365    -2   56   61  -0.380  -0.260        0
  3694  1479-43-5      -2   57   60  -0.230  -0.040        0
  3695  1479-48-364    -2   57   60  -0.230  -0.040        0
  3696  1479-56-34     -2   57   60  -0.230  -0.040        0
  3697  1479-60-363    -2   57   60  -0.230  -0.040        0
  3698  1479-71-70     -2   57   60  -0.230  -0.040        0
  3699  1479-71-365    -2   57   60  -0.230  -0.040        0
  3700  1462-42-364     1   57   60   0.190  -0.170        0
  3701  1462-48-334     1   57   60   0.190  -0.170        0
  3702  1462-56-16      1   57   60   0.190  -0.170        0
  3703  1468-1-365      1   57   60   0.030   0.220        0
  3704  1471-11-278    -2   57   59  -0.270   0.440        0
  3705  1471-17-33     -2   57   59  -0.270   0.440        0
  3706  1471-22-26     -2   57   59  -0.270   0.440        0
  3707  1471-26-349    -2   57   59  -0.270   0.440        0
  3708  1471-43-5      -2   57   59  -0.270   0.440        0
  3709  1471-48-364     2   57   59  -0.270   0.440        0
  3710  1471-65-336    -2   57   59  -0.270   0.440        0
  3711  1471-71-70     -2   57   59  -0.270   0.440        0
  3712  1471-71-365    -2   57   59  -0.270   0.440        0
  3713  1461-12-54     -2   57   62   0.260   0.500        0
  3714  1461-17-44     -2   57   62   0.260   0.500        0
  3715  1461-22-30     -2   57   62   0.260   0.500        0
  3716  1461-27-59     -2   57   62   0.260   0.500        0
  3717  1461-42-363    -2   57   62   0.260   0.500        0
  3718  1461-48-336    -2   57   62   0.260   0.500        0
  3719  1461-56-34     -2   57   62   0.260   0.500        0
  3720  1461-60-363    -2   57   62   0.260   0.500        0
  3721  1461-66-59     -2   57   62   0.260   0.500        0
  3722  1461-71-70     -2   57   62   0.260   0.500        0
  3723  1461-71-365    -2   57   62   0.260   0.500        0
  3724  1387-42-362    -2   60   61  -0.480  -0.030        0
  3725  1387-49-2      -2   60   61  -0.480  -0.030        0
  3726  1387-56-33     -2   60   61  -0.480  -0.030        0
  3727  1387-60-363    -2   60   61  -0.480  -0.030        0
  3728  1387-66-59     -2   60   61  -0.480  -0.030        0
  3729  1387-71-70     -2   60   61  -0.480  -0.030        0
  3730  1387-71-365    -2   60   61  -0.480  -0.030        0
  3731  1391-17-41     -3   59   62   0.250   0.400        0
  3732  1391-22-31     -3   59   62   0.250   0.400        0
  3733  1391-42-362    -2   59   62   0.250   0.400        0
  3734  1391-48-338    -2   59   62   0.250   0.400        0
  3735  1391-56-16     -2   59   62   0.250   0.400        0
  3736  1391-61-59     -2   59   62   0.250   0.400        0
  3737  1391-66-27     -2   59   62   0.250   0.400        0
  3738  1391-71-56     -2   59   62   0.250   0.400        0
  3739  1386-17-41     -3   59   62   0.290   0.370        0
  3740  1386-22-31     -3   59   62   0.290   0.370        0
  3741  1386-42-362    -2   59   62   0.290   0.370        0
  3742  1386-48-337    -2   59   62   0.290   0.370        0
  3743  1386-56-16     -2   59   62   0.290   0.370        0
  3744  1398-48-335    -2   59   62   0.290   0.370        0
  3745  1401-2-1        2   59   60   0.100  -0.430        0
  3746  1401-12-53      2   59   60   0.100  -0.430        0
  3747  1401-17-60      2   59   60   0.100  -0.430        0
  3748  1401-22-26      2   59   60   0.100  -0.430        0
  3749  1427-17-39      1   58   59   0.410  -0.180        0
  3750  1427-22-31      1   58   59   0.410  -0.180        0
  3751  1427-42-362     1   58   59   0.410  -0.180        0
  3752  1427-48-364     1   58   59   0.410  -0.180        0
  3753  1427-56-33      1   58   59   0.410  -0.180        0
  3754  1378-42-364     1   60   59  -0.020   0.110        0
  3755  1400-1-32       2   59   60   0.140  -0.400        0
  3756  1400-12-53      2   59   60   0.140  -0.400        0
  3757  1400-17-60      2   59   60   0.140  -0.400        0
  3758  1400-22-26      2   59   60   0.140  -0.400        0
  3759  1400-27-48      2   59   60   0.140  -0.400        0
  3760  1400-36-3       2   59   60   0.140  -0.400        0
  3761  1400-43-5       2   59   60   0.140  -0.400        0
  3762  1400-48-364     2   59   60   0.140  -0.400        0
  3763  1400-56-33      2   59   60   0.140  -0.400        0
  3764  1400-60-363     2   59   60   0.140  -0.400        0
  3765  1400-71-365     2   59   60   0.140  -0.400        0
  3766  1405-7-308      2   59   59   0.140  -0.380        0
  3767  1405-10-34      2   59   59   0.140  -0.380        0
  3768  1405-43-5       2   59   59   0.140  -0.380        0
  3769  1405-48-364     2   59   59   0.140  -0.380        0
  3770  1405-56-33      2   59   59   0.140  -0.380        0
  3771  1405-66-13      2   59   59   0.140  -0.380        0
  3772  1405-71-365     2   59   59   0.140  -0.380        0
  3773  1349-17-41     -2   61   58  -0.330   0.070        0
  3774  1349-22-30     -2   61   58  -0.330   0.070        0
  3775  1329-1-274      2   61   58   0.170   0.170        0
  3776  1329-17-41      2   61   58   0.170   0.170        0
  3777  1329-22-31      2   61   58   0.170   0.170        0
  3778  1329-42-364     2   61   58   0.170   0.170        0
  3779  1329-56-16      2   61   58   0.170   0.170        0
  3780  1329-66-26      2   61   58   0.170   0.170        0
  3781  1282-1-277      1   62   58   0.080  -0.030        0
  3782  1283-1-309      2   62   58   0.200   0.330        0
  3783  1283-6-340      2   62   58   0.200   0.330        0
  3784  1283-11-350     2   62   58   0.200   0.330        0
  3785  1283-16-301     2   62   58   0.200   0.330        0
  3786  1283-22-30      2   62   58   0.200   0.330        0
  3787  1283-27-10      2   62   58   0.200   0.330        0
  3788  1283-35-345     2   62   58   0.200   0.330        0
  3789  1274-6-288      2   62   59   0.200  -0.440        0
  3790  1274-12-54      2   62   59   0.200  -0.440        0
  3791  1274-17-41      2   62   59   0.200  -0.440        0
  3792  1274-22-30      2   62   59   0.200  -0.440        0
  3793  1356-43-1      -2   61   60  -0.450   0.220        0
  3794  1347-66-49      1   61   60  -0.290   0.410        0
  3795  1345-55-350    -2   61   60  -0.290   0.410        0
  3796  1345-61-33     -2   61   60  -0.290   0.410        0
  3797  1345-66-49     -2   61   60  -0.290   0.410        0
  3798  1345-71-68     -2   61   60  -0.290   0.410        0
  3799  1345-71-365     3   61   60  -0.290   0.410        0
  3800  1321-12-57      2   61   60   0.170   0.350        0
  3801  1321-17-41      2   61   60   0.170   0.350        0
  3802  1321-22-27      2   61   60   0.170   0.350        0
  3803  1321-27-51      2   61   60   0.170   0.350        0
  3804  1360-56-34     -2   60   59   0.440   0.180        0
  3805  1360-60-362    -2   60   59   0.440   0.180        0
  3806  1360-65-348    -2   60   59   0.440   0.180        0
  3807  1360-71-48     -2   60   59   0.440   0.180        0
  3808  1360-71-365    -2   60   59   0.440   0.180        0
  3809  1328-1-277      1   61   59   0.170   0.280        0
  3810  1328-6-295      1   61   59   0.170   0.280        0
  3811  1306-11-41     -2   61   60   0.400  -0.400        0
  3812  1306-17-41     -2   61   60   0.400  -0.400        0
  3813  1306-22-27     -2   61   60   0.400  -0.400        0
  3814  1306-43-5       2   61   60   0.400  -0.400        0
  3815  1306-48-364     2   61   60   0.400  -0.400        0
  3816  1306-56-33      2   61   60   0.400  -0.400        0
  3817  1306-60-363     2   61   60   0.400  -0.400        0
  3818  1306-66-6      -2   61   60   0.400  -0.400        0
  3819  1306-71-60     -2   61   60   0.400  -0.400        0
  3820  1306-71-365    -2   61   60   0.400  -0.400        0
  3821  1307-1-274      2   61   59   0.360   0.210        0
  3822  1307-11-41      2   61   59   0.360   0.210        0
  3823  1307-17-41      2   61   59   0.360   0.210        0
  3824  1307-22-27      2   61   59   0.360   0.210        0
  3825  1307-26-349     2   61   59   0.360   0.210        0
  3826  1307-48-364     2   61   59   0.360   0.210        0
  3827  1307-56-33      2   61   59   0.360   0.210        0
  3828  1307-71-60      2   61   59   0.360   0.210        0
  3829  1307-71-365     2   61   59   0.360   0.210        0
  3830  1304-1-274      3   62   59  -0.410   0.180        0
  3831  1304-11-41      3   62   59  -0.410   0.180        0
  3832  1304-17-32      3   62   59  -0.410   0.180        0
  3833  1304-22-27      3   62   59  -0.410   0.180        0
  3834  1304-26-302     3   62   59  -0.410   0.180        0
  3835  1304-48-364     3   62   59  -0.410   0.180        0
  3836  1304-56-33      3   62   59  -0.410   0.180        0
  3837  1304-60-356     3   62   59  -0.410   0.180        0
  3838  1304-71-60      3   62   59  -0.410   0.180        0
  3839  1281-12-54      2   62   59   0.080  -0.280        0
  3840  1281-17-41      2   62   59   0.080  -0.280        0
  3841  1281-22-30      2   62   59   0.080  -0.280        0
  3842  1281-32-50      2   62   59   0.080  -0.280        0
  3843  1281-37-49      2   62   59   0.080  -0.280        0
  3844  1292-1-274      2   62   59  -0.070   0.150        0
  3845  1292-17-46      2   62   59  -0.070   0.150        0
  3846  1292-22-27      2   62   59  -0.070   0.150        0
  3847  1292-26-349     2   62   59  -0.070   0.150        0
  3848  1292-43-5       2   62   59  -0.070   0.150        0
  3849  1292-48-364     2   62   59  -0.070   0.150        0
  3850  1272-1-60       2   62   59   0.200   0.280        0
  3851  1272-7-176      2   62   59   0.200   0.280        0
  3852  1272-60-363     2   62   59   0.200   0.280        0
  3853  1272-65-348     2   62   59   0.200   0.280        0
  3854  1272-71-365     2   62   59   0.200   0.280        0
  3855  1298-42-362    -2   62   60  -0.410   0.450        0
  3856  1298-56-10     -2   62   60  -0.410   0.450        0
  3857  1298-60-363    -2   62   60  -0.410   0.450        0
  3858  1298-66-13     -2   62   60  -0.410   0.450        0
  3859  1298-71-365    -2   62   60  -0.410   0.450        0
  3860  1299-56-10      2   62   60  -0.340  -0.010        0
  3861  1299-66-13      1   62   60  -0.340  -0.010        0
  3862  1299-71-365     1   62   60  -0.340  -0.010        0
  3863  1294-43-5       2   62   60  -0.220  -0.200        0
  3864  1294-48-364     2   62   60  -0.220  -0.200        0
  3865  1294-56-10      2   62   60  -0.220  -0.200        0
  3866  1294-60-363     2   62   60  -0.220  -0.200        0
  3867  1294-66-13     -2   62   60  -0.220  -0.200        0
  3868  1294-71-365    -2   62   60  -0.220  -0.200        0
  3869  1296-71-60     -2   62   60  -0.260  -0.170        0
  3870  1288-56-10      2   62   60  -0.150  -0.170        0
  3871  1288-66-13      1   62   60  -0.150  -0.170        0
  3872  1288-71-41      1   62   60  -0.150  -0.170        0
  3873  1288-71-365     1   62   60  -0.150  -0.170        0
  3874  1285-60-361    -2   62   60  -0.070   0.450        0
  3875  1285-71-365    -2   62   60  -0.070   0.450        0
  3876  1291-60-361    -2   62   60  -0.180   0.150        0
  3877  1291-71-365    -2   62   60  -0.180   0.150        0
  3878  1287-60-361    -2   62   60  -0.150   0.220        0
  3879  1287-71-365    -2   62   60  -0.150   0.220        0
  3880  1342-71-62     -2   61   62  -0.180   0.070        0
  3881  1342-71-365    -2   61   62  -0.180   0.070        0
  3882  1346-11-40      2   61   61  -0.290   0.490        0
  3883  1346-17-44      2   61   61  -0.290   0.490        0
  3884  1346-22-27      2   61   61  -0.290   0.490        0
  3885  1346-27-59      2   61   61  -0.290   0.490        0
  3886  1346-32-50      2   61   61  -0.290   0.490        0
  3887  1346-42-362     2   61   61  -0.290   0.490        0
  3888  1346-48-357     2   61   61  -0.290   0.490        0
  3889  1346-56-32      2   61   61  -0.290   0.490        0
  3890  1346-60-363     2   61   61  -0.290   0.490        0
  3891  1346-71-62      2   61   61  -0.290   0.490        0
  3892  1346-71-365     2   61   61  -0.290   0.490        0
  3893  1351-71-62      1   61   62  -0.370  -0.410        0
  3894  1351-71-365     1   61   62  -0.370  -0.410        0
  3895  1305-12-57      2   62   61  -0.490   0.260        0
  3896  1305-17-46      2   62   61  -0.490   0.260        0
  3897  1305-22-27      2   62   61  -0.490   0.260        0
  3898  1305-42-362     2   62   61  -0.490   0.260        0
  3899  1305-48-357     2   62   61  -0.490   0.260        0
  3900  1305-55-357     2   62   61  -0.490   0.260        0
  3901  1305-60-342     2   62   61  -0.490   0.260        0
  3902  1305-66-59      2   62   61  -0.490   0.260        0
  3903  1305-71-20      2   62   61  -0.490   0.260        0
  3904  1305-71-365     2   62   61  -0.490   0.260        0
  3905  1286-1-91       1   62   61  -0.110  -0.130        0
  3906  1284-60-361    -2   62   61  -0.030  -0.330        0
  3907  1284-65-356    -2   62   61  -0.030  -0.330        0
  3908  1284-71-365    -2   62   61  -0.030  -0.330        0
  3909  1271-42-362    -2   62   61   0.200  -0.230        0
  3910  1271-56-10     -2   62   61   0.200  -0.230        0
  3911  1271-60-363    -2   62   61   0.200  -0.230        0
  3912  1271-66-13     -3   62   61   0.200  -0.230        0
  3913  1271-71-62     -3   62   61   0.200  -0.230        0
  3914  1271-71-365    -3   62   61   0.200  -0.230        0
  3915  1293-56-10      2   62   61  -0.220  -0.260        0
  3916  1293-66-13      1   62   61  -0.220  -0.260        0
  3917  1293-71-47      1   62   61  -0.220  -0.260        0
  3918  1293-71-365     1   62   61  -0.220  -0.260        0
  3919  1898-10-252     1   51   74  -0.440  -0.250        0
  3920  1873-10-252     1   51   73   0.060   0.260        0
  3921  1763-10-252     1   52   74  -0.180  -0.030        0
  3922  1762-7-161     -2   52   74  -0.180   0.430        0
  3923  1762-22-60     -2   52   74  -0.180   0.430        0
  3924  1776-42-355    -2   52   74  -0.260   0.400        0
  3925  1776-56-27     -2   52   74  -0.260   0.400        0
  3926  1776-66-54     -2   52   74  -0.260   0.400        0
  3927  1776-71-64     -2   52   74  -0.260   0.400        0
  3928  1776-71-365    -2   52   74  -0.260   0.400        0
  3929  1775-42-355     2   52   74  -0.300   0.400        0
  3930  1775-56-27      2   52   74  -0.300   0.400        0
  3931  1775-66-54      2   52   74  -0.300   0.400        0
  3932  1775-71-64      2   52   74  -0.300   0.400        0
  3933  1775-71-365     2   52   74  -0.300   0.400        0
  3934  1905-10-252     1   51   72  -0.440   0.410        0
  3935  1875-10-252     1   51   72   0.020  -0.300        0
  3936  1877-22-79      1   51   72  -0.020  -0.010        0
  3937  1877-42-356     1   51   72  -0.020  -0.010        0
  3938  1877-48-355     1   51   72  -0.020  -0.010        0
  3939  1877-66-59      1   51   72  -0.020  -0.010        0
  3940  1877-71-64      1   51   72  -0.020  -0.010        0
  3941  1877-71-365     1   51   72  -0.020  -0.010        0
  3942  1878-42-356     2   51   72  -0.020   0.020        0
  3943  1878-48-356     2   51   72  -0.020   0.020        0
  3944  1878-56-10      2   51   72  -0.020   0.020        0
  3945  1878-61-26      2   51   72  -0.020   0.020        0
  3946  1878-66-59      2   51   72  -0.020   0.020        0
  3947  1878-71-64      2   51   72  -0.020   0.020        0
  3948  1878-71-365     2   51   72  -0.020   0.020        0
  3949  1926-42-363     1   50   71   0.370  -0.210        0
  3950  1886-22-79      1   51   71  -0.210   0.110        0
  3951  1886-26-349     1   51   71  -0.210   0.110        0
  3952  1886-42-362     1   51   71  -0.210   0.110        0
  3953  1886-48-357     1   51   71  -0.210   0.110        0
  3954  1886-56-24      1   51   71  -0.210   0.110        0
  3955  1886-66-1       1   51   71  -0.210   0.110        0
  3956  1886-71-62      1   51   71  -0.210   0.110        0
  3957  1886-71-365     1   51   71  -0.210   0.110        0
  3958  1852-10-255     1   51   71   0.250   0.440        0
  3959  1822-10-255     1   52   71  -0.480  -0.120        0
  3960  1786-66-19      1   52   71  -0.290   0.180        0
  3961  1786-71-33      1   52   71  -0.290   0.180        0
  3962  1786-71-365     1   52   71  -0.290   0.180        0
  3963  1851-10-252     1   51   72   0.250   0.410        0
  3964  1791-12-116    -2   52   72  -0.250  -0.010        0
  3965  1791-22-79     -2   52   72  -0.250  -0.010        0
  3966  1791-26-294    -2   52   72  -0.250  -0.010        0
  3967  1791-42-356    -2   52   72  -0.250  -0.010        0
  3968  1791-48-356    -2   52   72  -0.250  -0.010        0
  3969  1791-66-56     -2   52   72  -0.250  -0.010        0
  3970  1791-71-33     -2   52   72  -0.250  -0.010        0
  3971  1791-71-365    -2   52   72  -0.250  -0.010        0
  3972  1785-42-356    -2   52   72  -0.290  -0.010        0
  3973  1785-48-356    -2   52   72  -0.290  -0.010        0
  3974  1785-56-10     -2   52   72  -0.290  -0.010        0
  3975  1785-61-26     -2   52   72  -0.290  -0.010        0
  3976  1785-66-56     -2   52   72  -0.290  -0.010        0
  3977  1785-71-33     -2   52   72  -0.290  -0.010        0
  3978  1785-71-365    -2   52   72  -0.290  -0.010        0
  3979  1928-10-256     1   50   70   0.290   0.170        0
  3980  1879-12-111    -2   51   70  -0.020   0.200        0
  3981  1879-22-79     -2   51   70  -0.020   0.200        0
  3982  1879-42-362    -2   51   70  -0.020   0.200        0
  3983  1879-48-357    -2   51   70  -0.020   0.200        0
  3984  1879-55-353    -2   51   70  -0.020   0.200        0
  3985  1879-60-313    -2   51   70  -0.020   0.200        0
  3986  1879-71-49     -2   51   70  -0.020   0.200        0
  3987  1879-71-365    -2   51   70  -0.020   0.200        0
  3988  1824-10-256     2   52   69  -0.480   0.160        0
  3989  1811-7-156     -2   52   69  -0.400  -0.390        0
  3990  1811-22-79     -2   52   69  -0.400  -0.390        0
  3991  1811-32-32     -2   52   69  -0.400  -0.390        0
  3992  1811-48-357    -2   52   69  -0.400  -0.390        0
  3993  1811-55-354    -2   52   69  -0.400  -0.390        0
  3994  1811-60-349    -2   52   69  -0.400  -0.390        0
  3995  1811-65-355    -2   52   69  -0.400  -0.390        0
  3996  1811-71-68     -2   52   69  -0.400  -0.390        0
  3997  1811-71-365    -2   52   69  -0.400  -0.390        0
  3998  1777-10-256     1   52   69  -0.210   0.160        0
  3999  1823-42-362    -2   52   70  -0.480  -0.030        0
  4000  1823-48-357    -2   52   70  -0.480  -0.030        0
  4001  1823-56-32     -2   52   70  -0.480  -0.030        0
  4002  1823-60-313    -2   52   70  -0.480  -0.030        0
  4003  1823-66-19     -2   52   70  -0.480  -0.030        0
  4004  1823-71-49     -2   52   70  -0.480  -0.030        0
  4005  1823-71-365    -2   52   70  -0.480  -0.030        0
  4006  1744-10-256     1   52   70   0.020  -0.320        0
  4007  1907-12-116     2   50   68   0.450   0.310        0
  4008  1907-22-79      2   50   68   0.450   0.310        0
  4009  1907-42-362     2   50   68   0.450   0.310        0
  4010  1907-48-357     2   50   68   0.450   0.310        0
  4011  1907-71-365     2   50   68   0.450   0.310        0
  4012  1906-42-362    -2   51   68  -0.480   0.380        0
  4013  1906-48-357    -2   51   68  -0.480   0.380        0
  4014  1906-55-356    -2   51   68  -0.480   0.380        0
  4015  1906-60-341    -2   51   68  -0.480   0.380        0
  4016  1906-65-355    -2   51   68  -0.480   0.380        0
  4017  1906-71-32     -2   51   68  -0.480   0.380        0
  4018  1906-71-365    -2   51   68  -0.480   0.380        0
  4019  1899-66-19      1   51   67  -0.400   0.440        0
  4020  1899-71-32      1   51   67  -0.400   0.440        0
  4021  1899-71-365     1   51   67  -0.400   0.440        0
  4022  1778-12-261     2   52   67  -0.210   0.440        0
  4023  1764-10-257     1   52   67  -0.170   0.440        0
  4024  1765-42-362    -2   52   67  -0.290   0.210        0
  4025  1765-48-357    -2   52   67  -0.290   0.210        0
  4026  1765-55-354    -2   52   67  -0.290   0.210        0
  4027  1765-60-349    -2   52   67  -0.290   0.210        0
  4028  1765-66-56     -2   52   67  -0.290   0.210        0
  4029  1765-71-32     -2   52   67  -0.290   0.210        0
  4030  1765-71-365    -2   52   67  -0.290   0.210        0
  4031  1816-10-153     1   52   68  -0.440   0.190        0
  4032  1825-42-335    -2   52   68  -0.480   0.120        0
  4033  1825-48-357    -2   52   68  -0.480   0.120        0
  4034  1825-56-27     -2   52   68  -0.480   0.120        0
  4035  1825-61-42     -2   52   68  -0.480   0.120        0
  4036  1825-66-19     -2   52   68  -0.480   0.120        0
  4037  1825-71-32     -2   52   68  -0.480   0.120        0
  4038  1825-71-365    -2   52   68  -0.480   0.120        0
  4039  1888-22-79      2   51   66  -0.240   0.070        0
  4040  1888-32-32      2   51   66  -0.240   0.070        0
  4041  1888-42-362     2   51   66  -0.240   0.070        0
  4042  1888-48-357     2   51   66  -0.240   0.070        0
  4043  1888-65-355     2   51   66  -0.240   0.070        0
  4044  1888-71-32      2   51   66  -0.240   0.070        0
  4045  1888-71-365     2   51   66  -0.240   0.070        0
  4046  1890-42-362    -2   51   66  -0.240   0.070        0
  4047  1890-48-357    -2   51   66  -0.240   0.070        0
  4048  1890-55-350    -2   51   66  -0.240   0.070        0
  4049  1890-61-42     -2   51   66  -0.240   0.070        0
  4050  1890-66-19     -2   51   66  -0.240   0.070        0
  4051  1890-71-32     -2   51   66  -0.240   0.070        0
  4052  1890-71-365    -2   51   66  -0.240   0.070        0
  4053  1812-12-91      1   51   66   0.440   0.100        0
  4054  1812-22-62      1   51   66   0.440   0.100        0
  4055  1812-32-60      1   51   66   0.440   0.100        0
  4056  1827-42-362     2   51   66   0.480   0.100        0
  4057  1827-48-357     2   51   66   0.480   0.100        0
  4058  1827-56-25      2   51   66   0.480   0.100        0
  4059  1827-61-42      2   51   66   0.480   0.100        0
  4060  1827-66-19      2   51   66   0.480   0.100        0
  4061  1827-71-32      2   51   66   0.480   0.100        0
  4062  1827-71-365     2   51   66   0.480   0.100        0
  4063  1779-12-109     1   52   66  -0.250  -0.250        0
  4064  1779-17-80      1   52   66  -0.250  -0.250        0
  4065  1779-22-79      1   52   66  -0.250  -0.250        0
  4066  1779-42-362     1   52   66  -0.250  -0.250        0
  4067  1870-42-364     1   51   64   0.180   0.180        0
  4068  1817-56-20      2   52   64  -0.480   0.120        0
  4069  1817-66-34      2   52   64  -0.480   0.120        0
  4070  1747-71-60      2   52   64  -0.020  -0.400        0
  4071  1722-1-152      1   52   64   0.400   0.480        0
  4072  1722-22-80      1   52   64   0.400   0.480        0
  4073  1722-26-349     1   52   64   0.400   0.480        0
  4074  1722-32-32      1   52   64   0.400   0.480        0
  4075  1722-42-362     1   52   64   0.400   0.480        0
  4076  1722-48-357     1   52   64   0.400   0.480        0
  4077  1722-56-24      1   52   64   0.400   0.480        0
  4078  1722-61-11      1   52   64   0.400   0.480        0
  4079  1722-66-59      1   52   64   0.400   0.480        0
  4080  1722-71-56      1   52   64   0.400   0.480        0
  4081  1722-71-365     1   52   64   0.400   0.480        0
  4082  1668-56-20      1   53   64  -0.140   0.090        0
  4083  1666-66-34      2   53   64  -0.100   0.190        0
  4084  1718-56-20     -2   52   63   0.250   0.310        0
  4085  1718-61-59     -2   52   63   0.250   0.310        0
  4086  1718-66-34     -2   52   63   0.250   0.310        0
  4087  1662-56-20     -2   53   63   0.010   0.050        0
  4088  1664-66-34      2   53   63  -0.210   0.440        0
  4089  1664-71-60      2   53   63  -0.210   0.440        0
  4090  1641-66-34      2   53   64   0.240   0.380        0
  4091  1619-1-365     -2   54   65  -0.300  -0.490        0
  4092  1619-8-57      -2   54   65  -0.300  -0.490        0
  4093  1619-12-59     -2   54   65  -0.300  -0.490        0
  4094  1619-17-87     -2   54   65  -0.300  -0.490        0
  4095  1619-22-79     -2   54   65  -0.300  -0.490        0
  4096  1619-42-335    -2   54   65  -0.300  -0.490        0
  4097  1608-35-121    -2   54   65  -0.070  -0.490        0
  4098  1608-42-362    -2   54   65  -0.070  -0.490        0
  4099  1608-48-357    -2   54   65  -0.070  -0.490        0
  4100  1608-55-340    -2   54   65  -0.070  -0.490        0
  4101  1608-60-348    -2   54   65  -0.070  -0.490        0
  4102  1608-66-5      -2   54   65  -0.070  -0.490        0
  4103  1608-71-1      -2   54   65  -0.070  -0.490        0
  4104  1608-71-365    -2   54   65  -0.070  -0.490        0
  4105  1714-56-33      1   52   66   0.320  -0.220        0
  4106  1714-71-29      1   52   66   0.320  -0.220        0
  4107  1714-71-365     1   52   66   0.320  -0.220        0
  4108  1715-66-59      1   52   66   0.320  -0.220        0
  4109  1715-71-29      1   52   66   0.320  -0.220        0
  4110  1715-71-365     1   52   66   0.320  -0.220        0
  4111  1716-66-59      1   52   66   0.320  -0.420        0
  4112  1716-71-29      1   52   66   0.320  -0.420        0
  4113  1716-71-365     1   52   66   0.320  -0.420        0
  4114  1717-71-32      2   52   66   0.320  -0.420        0
  4115  1717-71-365     2   52   66   0.320  -0.420        0
  4116  1689-71-29      1   52   66   0.480  -0.420        0
  4117  1689-71-365     1   52   66   0.480  -0.420        0
  4118  1696-66-59      1   52   66   0.480  -0.420        0
  4119  1696-71-29      1   52   66   0.480  -0.420        0
  4120  1696-71-365     1   52   66   0.480  -0.420        0
  4121  1673-2-274     -2   53   66  -0.370   0.460        0
  4122  1673-8-57      -2   53   66  -0.370   0.460        0
  4123  1673-12-59     -2   53   66  -0.370   0.460        0
  4124  1673-17-87     -2   53   66  -0.370   0.460        0
  4125  1673-22-79     -2   53   66  -0.370   0.460        0
  4126  1673-42-363    -2   53   66  -0.370   0.460        0
  4127  1673-48-357    -2   53   66  -0.370   0.460        0
  4128  1673-56-24     -2   53   66  -0.370   0.460        0
  4129  1723-1-32       2   52   66   0.320  -0.480        0
  4130  1723-12-59      2   52   66   0.320  -0.480        0
  4131  1723-17-87      2   52   66   0.320  -0.480        0
  4132  1723-22-80      2   52   66   0.320  -0.480        0
  4133  1723-42-363     2   52   66   0.320  -0.480        0
  4134  1723-48-357     2   52   66   0.320  -0.480        0
  4135  1723-56-24      2   52   66   0.320  -0.480        0
  4136  1723-60-348     2   52   66   0.320  -0.480        0
  4137  1723-66-59      2   52   66   0.320  -0.480        0
  4138  1723-71-32      2   52   66   0.320  -0.480        0
  4139  1723-71-365     2   52   66   0.320  -0.480        0
  4140  1724-1-365      2   52   65   0.360   0.130        0
  4141  1724-12-59      2   52   65   0.360   0.130        0
  4142  1724-17-82      2   52   65   0.360   0.130        0
  4143  1724-22-80      2   52   65   0.360   0.130        0
  4144  1724-42-363     2   52   65   0.360   0.130        0
  4145  1724-48-357     2   52   65   0.360   0.130        0
  4146  1724-56-20      2   52   65   0.360   0.130        0
  4147  1724-60-348     2   52   65   0.360   0.130        0
  4148  1724-66-59      2   52   65   0.360   0.130        0
  4149  1724-71-56      2   52   65   0.360   0.130        0
  4150  1724-71-365     2   52   65   0.360   0.130        0
  4151  1694-17-82     -2   53   68  -0.490   0.220        0
  4152  1694-22-80     -2   53   68  -0.490   0.220        0
  4153  1699-42-363     2   52   68   0.440   0.090        0
  4154  1699-48-357     2   52   68   0.440   0.090        0
  4155  1699-55-356     2   52   68   0.440   0.090        0
  4156  1699-60-349     2   52   68   0.440   0.090        0
  4157  1699-66-56      2   52   68   0.440   0.090        0
  4158  1699-71-32      2   52   68   0.440   0.090        0
  4159  1699-71-365     2   52   68   0.440   0.090        0
  4160  1695-7-158      2   52   68   0.480  -0.330        0
  4161  1695-42-363     2   52   68   0.480  -0.330        0
  4162  1695-48-357     2   52   68   0.480  -0.330        0
  4163  1695-56-24      2   52   68   0.480  -0.330        0
  4164  1695-60-336     2   52   68   0.480  -0.330        0
  4165  1695-66-56      2   52   68   0.480  -0.330        0
  4166  1695-71-56      2   52   68   0.480  -0.330        0
  4167  1695-71-365     2   52   68   0.480  -0.330        0
  4168  1658-2-217     -2   53   67   0.090  -0.150        0
  4169  1658-8-58      -2   53   67   0.090  -0.150        0
  4170  1658-12-59     -2   53   67   0.090  -0.150        0
  4171  1658-17-87     -2   53   67   0.090  -0.150        0
  4172  1658-22-81     -2   53   67   0.090  -0.150        0
  4173  1652-42-363     2   53   67   0.130  -0.150        0
  4174  1652-48-357     2   53   67   0.130  -0.150        0
  4175  1652-56-24      2   53   67   0.130  -0.150        0
  4176  1652-60-349     2   53   67   0.130  -0.150        0
  4177  1652-66-1       2   53   67   0.130  -0.150        0
  4178  1652-71-76      2   53   67   0.130  -0.150        0
  4179  1652-71-365     2   53   67   0.130  -0.150        0
  4180  1633-12-96      1   53   68   0.430   0.150        0
  4181  1633-17-89      1   53   68   0.430   0.150        0
  4182  1633-42-355     1   53   68   0.430   0.150        0
  4183  1713-61-54      2   52   70   0.320   0.230        0
  4184  1713-66-56      2   52   70   0.320   0.230        0
  4185  1713-71-64      2   52   70   0.320   0.230        0
  4186  1713-71-365     2   52   70   0.320   0.230        0
  4187  1670-42-357    -2   53   70  -0.180  -0.350        0
  4188  1656-22-80      1   53   70   0.130  -0.320        0
  4189  1656-31-351     1   53   70   0.130  -0.320        0
  4190  1656-37-343     1   53   70   0.130  -0.320        0
  4191  1656-55-360     1   53   70   0.130  -0.320        0
  4192  1656-61-42      1   53   70   0.130  -0.320        0
  4193  1656-66-56      1   53   70   0.130  -0.320        0
  4194  1656-71-33      1   53   70   0.130  -0.320        0
  4195  1656-71-365     1   53   70   0.130  -0.320        0
  4196  1655-17-89     -2   53   70   0.090   0.040        0
  4197  1655-22-80     -2   53   70   0.090   0.040        0
  4198  1655-42-355    -2   53   70   0.090   0.040        0
  4199  1655-48-364    -2   53   70   0.090   0.040        0
  4200  1651-42-362     2   53   69   0.090  -0.390        0
  4201  1651-48-355     2   53   69   0.090  -0.390        0
  4202  1657-60-349    -2   53   69   0.050  -0.290        0
  4203  1657-66-56     -2   53   69   0.050  -0.290        0
  4204  1657-71-32     -2   53   69   0.050  -0.290        0
  4205  1657-71-365    -2   53   69   0.050  -0.290        0
  4206  1614-12-96      1   54   70  -0.220  -0.280        0
  4207  1614-17-89      1   54   70  -0.220  -0.280        0
  4208  1614-22-80      1   54   70  -0.220  -0.280        0
  4209  1615-17-89      1   54   70  -0.220  -0.320        0
  4210  1615-22-80      1   54   70  -0.220  -0.320        0
  4211  1615-42-356     1   54   70  -0.220  -0.320        0
  4212  1615-48-355     1   54   70  -0.220  -0.320        0
  4213  1615-56-20      1   54   70  -0.220  -0.320        0
  4214  1615-61-31      1   54   70  -0.220  -0.320        0
  4215  1615-66-56      1   54   70  -0.220  -0.320        0
  4216  1615-71-33      1   54   70  -0.220  -0.320        0
  4217  1615-71-365     1   54   70  -0.220  -0.320        0
  4218  1611-42-356    -2   54   70  -0.150  -0.220        0
  4219  1611-48-355    -2   54   70  -0.150  -0.220        0
  4220  1611-56-20     -2   54   70  -0.150  -0.220        0
  4221  1611-61-31     -2   54   70  -0.150  -0.220        0
  4222  1611-66-56     -2   54   70  -0.150  -0.220        0
  4223  1611-71-33     -2   54   70  -0.150  -0.220        0
  4224  1611-71-365    -2   54   70  -0.150  -0.220        0
  4225  1708-42-357    -2   52   72   0.360   0.090        0
  4226  1708-48-341    -2   52   72   0.360   0.090        0
  4227  1693-17-87      1   52   72   0.470   0.090        0
  4228  1693-22-79      1   52   72   0.470   0.090        0
  4229  1693-42-356     1   52   72   0.470   0.090        0
  4230  1693-48-356     1   52   72   0.470   0.090        0
  4231  1687-42-356    -2   52   72   0.470   0.090        0
  4232  1687-48-356    -2   52   72   0.470   0.090        0
  4233  1687-56-27     -2   52   72   0.470   0.090        0
  4234  1687-61-26     -2   52   72   0.470   0.090        0
  4235  1687-66-56     -2   52   72   0.470   0.090        0
  4236  1687-71-33     -2   52   72   0.470   0.090        0
  4237  1687-71-365    -2   52   72   0.470   0.090        0
  4238  1681-17-87      1   53   71  -0.410   0.080        0
  4239  1681-22-79      1   53   71  -0.410   0.080        0
  4240  1681-26-294     1   53   71  -0.410   0.080        0
  4241  1681-48-356     1   53   71  -0.410   0.080        0
  4242  1681-66-56      1   53   71  -0.410   0.080        0
  4243  1681-71-33      1   53   71  -0.410   0.080        0
  4244  1681-71-365     1   53   71  -0.410   0.080        0
  4245  1688-42-356    -2   53   71  -0.410   0.080        0
  4246  1688-48-356    -2   53   71  -0.410   0.080        0
  4247  1688-55-364    -2   53   71  -0.410   0.080        0
  4248  1688-61-21     -2   53   71  -0.410   0.080        0
  4249  1688-66-56     -2   53   71  -0.410   0.080        0
  4250  1688-71-33     -2   53   71  -0.410   0.080        0
  4251  1688-71-365    -2   53   71  -0.410   0.080        0
  4252  1596-12-96      1   54   71  -0.340  -0.210        0
  4253  1596-22-81      1   54   71  -0.340  -0.210        0
  4254  1596-42-356     1   54   71  -0.340  -0.210        0
  4255  1621-42-356    -2   54   71  -0.340  -0.180        0
  4256  1621-48-356    -2   54   71  -0.340  -0.180        0
  4257  1621-56-6      -2   54   71  -0.340  -0.180        0
  4258  1621-61-42     -2   54   71  -0.340  -0.180        0
  4259  1621-65-355    -2   54   71  -0.340  -0.180        0
  4260  1621-71-33     -2   54   71  -0.340  -0.180        0
  4261  1621-71-365    -2   54   71  -0.340  -0.180        0
  4262  1605-11-45      1   54   71   0.040  -0.280        0
  4263  1630-17-87      1   54   72  -0.490   0.060        0
  4264  1630-22-79      1   54   72  -0.490   0.060        0
  4265  1630-42-355     1   54   72  -0.490   0.060        0
  4266  1630-48-356     1   54   72  -0.490   0.060        0
  4267  1630-66-59      1   54   72  -0.490   0.060        0
  4268  1630-71-33      1   54   72  -0.490   0.060        0
  4269  1630-71-365     1   54   72  -0.490   0.060        0
  4270  1629-42-355     2   53   72   0.470   0.060        0
  4271  1629-48-356     2   53   72   0.470   0.060        0
  4272  1629-56-9       2   53   72   0.470   0.060        0
  4273  1629-61-21      2   53   72   0.470   0.060        0
  4274  1629-66-59      2   53   72   0.470   0.060        0
  4275  1629-71-33      2   53   72   0.470   0.060        0
  4276  1629-71-365     2   53   72   0.470   0.060        0
  4277  1683-22-79     -2   53   74  -0.420   0.170        0
  4278  1683-26-349    -2   53   74  -0.420   0.170        0
  4279  1683-42-355    -2   53   74  -0.420   0.170        0
  4280  1683-48-355     2   53   74  -0.420   0.170        0
  4281  1683-56-27      2   53   74  -0.420   0.170        0
  4282  1683-60-349     2   53   74  -0.420   0.170        0
  4283  1683-66-54     -2   53   74  -0.420   0.170        0
  4284  1679-42-355     2   53   74  -0.420   0.170        0
  4285  1679-48-355     2   53   74  -0.420   0.170        0
  4286  1679-56-27      2   53   74  -0.420   0.170        0
  4287  1679-61-11      2   53   74  -0.420   0.170        0
  4288  1680-66-54      2   53   74  -0.420   0.170        0
  4289  1654-42-355     2   53   73  -0.030   0.130        0
  4290  1654-48-355     2   53   73  -0.030   0.130        0
  4291  1654-56-27      2   53   73  -0.030   0.130        0
  4292  1654-61-14      2   53   73  -0.030   0.130        0
  4293  1654-66-54      2   53   73  -0.030   0.130        0
  4294  1654-71-64      2   53   73  -0.030   0.130        0
  4295  1654-71-365     2   53   73  -0.030   0.130        0
  4296  1660-42-355     2   53   73  -0.030   0.130        0
  4297  1660-48-355     2   53   73  -0.030   0.130        0
  4298  1660-56-27      2   53   73  -0.030   0.130        0
  4299  1660-60-349     2   53   73  -0.030   0.130        0
  4300  1660-66-54      2   53   73  -0.030   0.130        0
  4301  1660-71-64      2   53   73  -0.030   0.130        0
  4302  1660-71-365     2   53   73  -0.030   0.130        0
  4303  1554-22-81     -2   55   74   0.150   0.080        0
  4304  1554-27-15     -2   55   74   0.150   0.080        0
  4305  1554-32-60     -2   55   74   0.150   0.080        0
  4306  1554-56-26      2   55   74   0.150   0.080        0
  4307  1554-61-12      2   55   74   0.150   0.080        0
  4308  1554-66-59      2   55   74   0.150   0.080        0
  4309  1554-71-54      2   55   74   0.150   0.080        0
  4310  1554-71-365     2   55   74   0.150   0.080        0
  4311  1504-22-60     -2   56   74   0.100   0.110        0
  4312  1548-7-158      2   55   72   0.040  -0.360        0
  4313  1548-11-82      2   55   72   0.040  -0.360        0
  4314  1548-17-87      2   55   72   0.040  -0.360        0
  4315  1548-22-81      2   55   72   0.040  -0.360        0
  4316  1548-26-278     2   55   72   0.040  -0.360        0
  4317  1550-48-365    -2   55   72   0.070  -0.360        0
  4318  1550-56-6      -2   55   72   0.070  -0.360        0
  4319  1550-61-27     -2   55   72   0.070  -0.360        0
  4320  1550-66-28     -2   55   72   0.070  -0.360        0
  4321  1550-71-13     -2   55   72   0.070  -0.360        0
  4322  1550-71-365    -2   55   72   0.070  -0.360        0
  4323  1559-66-46      1   55   71  -0.120  -0.310        0
  4324  1559-71-365     1   55   71  -0.120  -0.310        0
  4325  1569-32-60      1   55   71  -0.270   0.340        0
  4326  1569-37-89      1   55   71  -0.270   0.340        0
  4327  1569-42-356     1   55   71  -0.270   0.340        0
  4328  1569-48-355     1   55   71  -0.270   0.340        0
  4329  1569-56-26      1   55   71  -0.270   0.340        0
  4330  1569-61-24      1   55   71  -0.270   0.340        0
  4331  1569-66-28      1   55   71  -0.270   0.340        0
  4332  1569-71-365     1   55   71  -0.270   0.340        0
  4333  1540-17-86      1   55   72   0.190  -0.490        0
  4334  1540-22-81      1   55   72   0.190  -0.490        0
  4335  1540-26-279     1   55   72   0.190  -0.490        0
  4336  1540-42-355     1   55   72   0.190  -0.490        0
  4337  1540-48-355     1   55   72   0.190  -0.490        0
  4338  1540-56-26      1   55   72   0.190  -0.490        0
  4339  1540-60-350     1   55   72   0.190  -0.490        0
  4340  1540-66-28      1   55   72   0.190  -0.490        0
  4341  1540-71-365     1   55   72   0.190  -0.490        0
  4342  1526-17-87      2   56   71  -0.350   0.250        0
  4343  1526-22-81      2   56   71  -0.350   0.250        0
  4344  1526-26-349     2   56   71  -0.350   0.250        0
  4345  1526-32-60      2   56   71  -0.350   0.250        0
  4346  1526-42-356     2   56   71  -0.350   0.250        0
  4347  1526-48-355     2   56   71  -0.350   0.250        0
  4348  1526-56-26      2   56   71  -0.350   0.250        0
  4349  1526-60-350     2   56   71  -0.350   0.250        0
  4350  1526-65-355     2   56   71  -0.350   0.250        0
  4351  1526-71-362     2   56   71  -0.350   0.250        0
  4352  1518-42-357    -2   56   71  -0.200   0.250        0
  4353  1517-71-53      2   56   73  -0.120  -0.480        0
  4354  1517-71-365     2   56   73  -0.120  -0.480        0
  4355  1564-56-26      2   55   70  -0.150   0.070        0
  4356  1564-71-365     2   55   70  -0.150   0.070        0
  4357  1552-12-59      1   55   69  -0.080   0.070        0
  4358  1552-17-85      1   55   69  -0.080   0.070        0
  4359  1552-22-80      1   55   69  -0.080   0.070        0
  4360  1557-42-356     1   55   69  -0.080   0.030        0
  4361  1557-48-355     1   55   69  -0.080   0.030        0
  4362  1557-56-20      1   55   69  -0.080   0.030        0
  4363  1557-71-13      1   55   69  -0.080   0.030        0
  4364  1557-71-365     1   55   69  -0.080   0.030        0
  4365  1570-2-98       1   55   69  -0.310  -0.190        0
  4366  1631-12-96      1   56   69  -0.200   0.200        0
  4367  1631-17-87      1   56   69  -0.200   0.200        0
  4368  1631-22-80      1   56   69  -0.200   0.200        0
  4369  1631-26-279     1   56   69  -0.200   0.200        0
  4370  1631-42-355     1   56   69  -0.200   0.200        0
  4371  1631-48-355     1   56   69  -0.200   0.200        0
  4372  1631-56-26      1   56   69  -0.200   0.200        0
  4373  1631-66-32      1   56   69  -0.200   0.200        0
  4374  1631-71-33      1   56   69  -0.200   0.200        0
  4375  1631-71-365     1   56   69  -0.200   0.200        0
  4376  1519-42-355    -2   56   69  -0.200   0.160        0
  4377  1519-48-355    -2   56   69  -0.200   0.160        0
  4378  1519-56-20     -2   56   69  -0.200   0.160        0
  4379  1519-61-18     -2   56   69  -0.200   0.160        0
  4380  1519-66-32     -2   56   69  -0.200   0.160        0
  4381  1519-71-33     -2   56   69  -0.200   0.160        0
  4382  1519-71-365    -2   56   69  -0.200   0.160        0
  4383  1542-56-20      2   55   70   0.230   0.140        0
  4384  1542-60-350     2   55   70   0.230   0.140        0
  4385  1542-66-54      2   55   70   0.230   0.140        0
  4386  1542-71-13      2   55   70   0.230   0.140        0
  4387  1542-71-365     2   55   70   0.230   0.140        0
  4388  1520-17-87      1   56   70  -0.230  -0.050        0
  4389  1520-22-80      1   56   70  -0.230  -0.050        0
  4390  1520-32-60      1   56   70  -0.230  -0.050        0
  4391  1520-42-356     1   56   70  -0.230  -0.050        0
  4392  1597-56-27      1   54   69   0.240  -0.490        0
  4393  1597-66-26      1   54   69   0.240  -0.490        0
  4394  1597-71-28      1   54   69   0.240  -0.490        0
  4395  1597-71-365     1   54   69   0.240  -0.490        0
  4396  1581-11-256     1   55   68  -0.500   0.450        0
  4397  1583-56-27      1   54   68   0.430  -0.400        0
  4398  1583-66-26      1   54   68   0.430  -0.400        0
  4399  1583-71-28      1   54   68   0.430  -0.400        0
  4400  1583-71-29      1   54   68   0.430  -0.400        0
  4401  1583-71-365     1   54   68   0.430  -0.400        0
  4402  1565-71-28      2   55   69  -0.190  -0.490        0
  4403  1565-71-365     2   55   69  -0.190  -0.490        0
  4404  1595-11-257     2   54   67   0.310   0.440        0
  4405  1533-8-65       1   55   67   0.350  -0.310        0
  4406  1533-12-96      1   55   67   0.350  -0.310        0
  4407  1533-17-82      1   55   67   0.350  -0.310        0
  4408  1533-22-80      1   55   67   0.350  -0.310        0
  4409  1533-27-15      1   55   67   0.350  -0.310        0
  4410  1533-42-363     1   55   67   0.350  -0.310        0
  4411  1537-42-363     2   55   67   0.310  -0.310        0
  4412  1537-48-357     2   55   67   0.310  -0.310        0
  4413  1541-66-55      1   55   67   0.270  -0.410        0
  4414  1541-71-76      1   55   67   0.270  -0.410        0
  4415  1541-71-365     1   55   67   0.270  -0.410        0
  4416  1510-42-357     2   56   67  -0.040  -0.370        0
  4417  1510-48-337     2   56   67  -0.040  -0.370        0
  4418  1510-56-18      2   56   67  -0.040  -0.370        0
  4419  1510-60-333     2   56   67  -0.040  -0.370        0
  4420  1510-65-299     2   56   67  -0.040  -0.370        0
  4421  1510-71-11      2   56   67  -0.040  -0.370        0
  4422  1510-71-365     2   56   67  -0.040  -0.370        0
  4423  1511-31-351     2   56   67  -0.040  -0.370        0
  4424  1511-37-27      2   56   67  -0.040  -0.370        0
  4425  1511-42-357     2   56   67  -0.040  -0.370        0
  4426  1511-48-337     2   56   67  -0.040  -0.370        0
  4427  1511-56-18      2   56   67  -0.040  -0.370        0
  4428  1511-60-333     2   56   67  -0.040  -0.370        0
  4429  1511-65-299     2   56   67  -0.040  -0.370        0
  4430  1511-71-12      2   56   67  -0.040  -0.370        0
  4431  1511-71-365     2   56   67  -0.040  -0.370        0
  4432  1512-31-351     2   56   67  -0.040  -0.370        0
  4433  1512-42-357     2   56   67  -0.040  -0.370        0
  4434  1512-48-337     2   56   67  -0.040  -0.370        0
  4435  1512-56-18      2   56   67  -0.040  -0.370        0
  4436  1513-31-351     2   56   67  -0.040  -0.370        0
  4437  1513-42-357     2   56   67  -0.040  -0.370        0
  4438  1513-48-337     2   56   67  -0.040  -0.370        0
  4439  1513-56-18      2   56   67  -0.040  -0.370        0
  4440  1513-60-333     2   56   67  -0.040  -0.370        0
  4441  1513-65-299     2   56   67  -0.040  -0.370        0
  4442  1513-71-11      2   56   67  -0.040  -0.370        0
  4443  1513-71-365     2   56   67  -0.040  -0.370        0
  4444  1505-66-26      1   56   68   0.110   0.450        0
  4445  1505-71-53      1   56   68   0.110   0.450        0
  4446  1505-71-365     1   56   68   0.110   0.450        0
  4447  1546-8-65       2   55   66   0.120   0.040        0
  4448  1546-10-31      2   55   66   0.120   0.040        0
  4449  1546-17-82      2   55   66   0.120   0.040        0
  4450  1546-22-81      2   55   66   0.120   0.040        0
  4451  1551-42-363    -2   55   66   0.120  -0.250        0
  4452  1551-48-357    -2   55   66   0.120  -0.250        0
  4453  1551-56-13     -2   55   66   0.120  -0.250        0
  4454  1551-61-31     -2   55   66   0.120  -0.250        0
  4455  1551-66-19     -2   55   66   0.120  -0.250        0
  4456  1551-71-32     -2   55   66   0.120  -0.250        0
  4457  1551-71-365    -2   55   66   0.120  -0.250        0
  4458  1525-10-154     2   56   65  -0.380   0.330        0
  4459  1525-22-83      2   56   65  -0.380   0.330        0
  4460  1525-32-60      2   56   65  -0.380   0.330        0
  4461  1525-42-363     2   56   65  -0.380   0.330        0
  4462  1525-56-25      2   56   65  -0.380   0.330        0
  4463  1525-60-351     2   56   65  -0.380   0.330        0
  4464  1525-66-1       2   56   65  -0.380   0.330        0
  4465  1525-71-32      2   56   65  -0.380   0.330        0
  4466  1525-71-365     2   56   65  -0.380   0.330        0
  4467  1813-17-82      2   55   66   0.460   0.040        0
  4468  1813-22-82      2   55   66   0.460   0.040        0
  4469  1813-26-294     2   55   66   0.460   0.040        0
  4470  1813-42-363     2   55   66   0.460   0.040        0
  4471  1813-48-357     2   55   66   0.460   0.040        0
  4472  1813-56-25      2   55   66   0.460   0.040        0
  4473  1813-60-351     2   55   66   0.460   0.040        0
  4474  1813-66-19      2   55   66   0.460   0.040        0
  4475  1813-71-32      2   55   66   0.460   0.040        0
  4476  1813-71-365     2   55   66   0.460   0.040        0
  4477  1538-10-154    -2   55   66   0.310  -0.280        0
  4478  1538-17-86     -2   55   66   0.310  -0.280        0
  4479  1538-22-82     -2   55   66   0.310  -0.280        0
  4480  1538-42-363    -2   55   66   0.310  -0.280        0
  4481  1567-12-59     -2   55   64  -0.230   0.190        0
  4482  1567-17-85     -2   55   64  -0.230   0.190        0
  4483  1567-22-53     -2   55   64  -0.230   0.190        0
  4484  1567-27-15     -2   55   64  -0.230   0.190        0
  4485  1567-32-65     -2   55   64  -0.230   0.190        0
  4486  1578-42-362     2   55   64  -0.420   0.190        0
  4487  1579-34-182    -2   55   63  -0.420   0.240        0
  4488  1466-12-96      2   57   63   0.070   0.370        0
  4489  1466-17-89      2   57   63   0.070   0.370        0
  4490  1466-32-60      2   57   63   0.070   0.370        0
  4491  1466-37-89      2   57   63   0.070   0.370        0
  4492  1466-42-363     2   57   63   0.070   0.370        0
  4493  1466-48-357     2   57   63   0.070   0.370        0
  4494  1466-56-25      2   57   63   0.070   0.370        0
  4495  1466-71-365     2   57   63   0.070   0.370        0
  4496  1467-17-89      2   57   63   0.110   0.410        0
  4497  1467-22-60      2   57   63   0.110   0.410        0
  4498  1467-48-357     2   57   63   0.110   0.410        0
  4499  1467-56-25      2   57   63   0.110   0.410        0
  4500  1467-60-351     2   57   63   0.110   0.410        0
  4501  1467-65-355     2   57   63   0.110   0.410        0
  4502  1467-71-52      2   57   63   0.110   0.410        0
  4503  1467-71-365     2   57   63   0.110   0.410        0
  4504  1470-17-82      2   57   66  -0.120  -0.020        0
  4505  1470-22-82      2   57   66  -0.120  -0.020        0
  4506  1470-42-362     2   57   66  -0.120  -0.020        0
  4507  1470-48-357     2   57   66  -0.120  -0.020        0
  4508  1470-56-18      2   57   66  -0.120  -0.020        0
  4509  1470-60-308     2   57   66  -0.120  -0.020        0
  4510  1470-71-365     2   57   66  -0.120  -0.020        0
  4511  1500-27-60     -2   56   65   0.270   0.130        0
  4512  1500-42-362    -2   56   65   0.270   0.130        0
  4513  1500-48-357    -2   56   65   0.270   0.130        0
  4514  1500-56-25     -2   56   65   0.270   0.130        0
  4515  1500-60-351    -2   56   65   0.270   0.130        0
  4516  1459-11-68      2   57   65   0.180  -0.190        0
  4517  1459-17-82      2   57   65   0.180  -0.190        0
  4518  1459-22-60      2   57   65   0.180  -0.190        0
  4519  1459-26-293     2   57   65   0.180  -0.190        0
  4520  1459-42-363     2   57   65   0.180  -0.190        0
  4521  1459-48-357     2   57   65   0.180  -0.190        0
  4522  1459-56-25      2   57   65   0.180  -0.190        0
  4523  1459-60-351     2   57   65   0.180  -0.190        0
  4524  1459-66-12      2   57   65   0.180  -0.190        0
  4525  1459-71-365     2   57   65   0.180  -0.190        0
  4526  1455-12-96      1   57   66   0.450  -0.020        0
  4527  1455-17-82      1   57   66   0.450  -0.020        0
  4528  1443-12-96      2   58   66  -0.430   0.010        0
  4529  1443-17-82      2   58   66  -0.430   0.010        0
  4530  1443-32-60      2   58   66  -0.430   0.010        0
  4531  1443-38-60      2   58   66  -0.430   0.010        0
  4532  1443-42-364     2   58   66  -0.430   0.010        0
  4533  1443-48-341     2   58   66  -0.430   0.010        0
  4534  1486-56-56      1   57   68  -0.390   0.090        0
  4535  1486-71-365     1   57   68  -0.390   0.090        0
  4536  1485-71-365     1   57   68  -0.390   0.090        0
  4537  1475-11-305     1   57   67  -0.200  -0.270        0
  4538  1465-17-82      1   57   67   0.180  -0.210        0
  4539  1465-22-82      1   57   67   0.180  -0.210        0
  4540  1465-42-356     1   57   67   0.180  -0.210        0
  4541  1465-48-355     1   57   67   0.180  -0.210        0
  4542  1465-56-25      1   57   67   0.180  -0.210        0
  4543  1465-60-351     1   57   67   0.180  -0.210        0
  4544  1465-66-1       1   57   67   0.180  -0.210        0
  4545  1465-71-365     1   57   67   0.180  -0.210        0
  4546  1440-17-82     -2   57   68   0.260  -0.430        0
  4547  1440-22-80     -2   57   68   0.260  -0.430        0
  4548  1440-32-60     -2   57   68   0.260  -0.430        0
  4549  1440-37-90     -2   57   68   0.260  -0.430        0
  4550  1440-48-355    -2   57   68   0.260  -0.430        0
  4551  1441-11-283    -2   58   68  -0.360   0.450        0
  4552  1474-17-87      1   57   70  -0.200   0.140        0
  4553  1474-22-80      1   57   70  -0.200   0.140        0
  4554  1474-61-31      1   57   70  -0.200   0.140        0
  4555  1474-71-68      1   57   70  -0.200   0.140        0
  4556  1474-71-365     1   57   70  -0.200   0.140        0
  4557  1478-48-355    -2   57   70  -0.240  -0.050        0
  4558  1478-56-26     -2   57   70  -0.240  -0.050        0
  4559  1478-60-350    -2   57   70  -0.240  -0.050        0
  4560  1478-65-355    -2   57   70  -0.240  -0.050        0
  4561  1478-71-68     -2   57   70  -0.240  -0.050        0
  4562  1478-71-365    -2   57   70  -0.240  -0.050        0
  4563  1453-17-85      1   57   69   0.370  -0.090        0
  4564  1453-22-80      1   57   69   0.370  -0.090        0
  4565  1453-42-356     1   57   69   0.370  -0.090        0
  4566  1453-48-355     1   57   69   0.370  -0.090        0
  4567  1453-66-49      1   57   69   0.370  -0.090        0
  4568  1453-71-68      1   57   69   0.370  -0.090        0
  4569  1453-71-365     1   57   69   0.370  -0.090        0
  4570  1454-42-356    -2   57   69   0.330  -0.090        0
  4571  1454-48-355    -2   57   69   0.330  -0.090        0
  4572  1454-55-362    -2   57   69   0.330  -0.090        0
  4573  1454-61-31     -2   57   69   0.330  -0.090        0
  4574  1454-66-49     -2   57   69   0.330  -0.090        0
  4575  1454-71-68     -2   57   69   0.330  -0.090        0
  4576  1454-71-365    -2   57   69   0.330  -0.090        0
  4577  1447-66-49      1   57   69   0.410   0.100        0
  4578  1447-71-68      1   57   69   0.410   0.100        0
  4579  1447-71-365     1   57   69   0.410   0.100        0
  4580  1444-42-356    -2   58   70  -0.470  -0.310        0
  4581  1444-48-355    -2   58   70  -0.470  -0.310        0
  4582  1444-55-362    -2   58   70  -0.470  -0.310        0
  4583  1444-61-6      -2   58   70  -0.470  -0.310        0
  4584  1444-66-49     -2   58   70  -0.470  -0.310        0
  4585  1444-71-68     -2   58   70  -0.470  -0.310        0
  4586  1444-71-365    -2   58   70  -0.470  -0.310        0
  4587  1499-11-360    -2   56   72   0.300   0.160        0
  4588  1499-17-85     -2   56   72   0.300   0.160        0
  4589  1499-22-81     -2   56   72   0.300   0.160        0
  4590  1499-48-355    -2   56   72   0.300   0.160        0
  4591  1499-56-20     -2   56   72   0.300   0.160        0
  4592  1499-60-350    -2   56   72   0.300   0.160        0
  4593  1499-66-14     -2   56   72   0.300   0.160        0
  4594  1499-71-64     -2   56   72   0.300   0.160        0
  4595  1499-71-365    -2   56   72   0.300   0.160        0
  4596  1490-66-45      1   56   72   0.450   0.320        0
  4597  1490-71-64      1   56   72   0.450   0.320        0
  4598  1490-71-365     1   56   72   0.450   0.320        0
  4599  1436-71-64      2   57   71   0.220   0.120        0
  4600  1436-71-365     2   57   71   0.220   0.120        0
  4601  1488-17-87      2   57   74  -0.440   0.080        0
  4602  1488-22-81      2   57   74  -0.440   0.080        0
  4603  1488-48-350     2   57   74  -0.440   0.080        0
  4604  1488-56-20      2   57   74  -0.440   0.080        0
  4605  1502-17-85     -2   56   74   0.260  -0.350        0
  4606  1502-22-81     -2   56   74   0.260  -0.350        0
  4607  1502-48-365     2   56   74   0.260  -0.350        0
  4608  1502-56-20      2   56   74   0.260  -0.350        0
  4609  1502-60-350     2   56   74   0.260  -0.350        0
  4610  1502-66-46     -2   56   74   0.260  -0.350        0
  4611  1502-71-54     -2   56   74   0.260  -0.350        0
  4612  1502-71-365    -2   56   74   0.260  -0.350        0
  4613  1477-8-69       2   57   73  -0.240   0.100        0
  4614  1477-12-96      2   57   73  -0.240   0.100        0
  4615  1477-17-86      2   57   73  -0.240   0.100        0
  4616  1477-22-81      2   57   73  -0.240   0.100        0
  4617  1477-32-60      2   57   73  -0.240   0.100        0
  4618  1458-17-85      2   57   74   0.250  -0.410        0
  4619  1458-22-81      2   57   74   0.250  -0.410        0
  4620  1458-42-355     2   57   74   0.250  -0.410        0
  4621  1458-48-350     2   57   74   0.250  -0.410        0
  4622  1458-56-20      2   57   74   0.250  -0.410        0
  4623  1458-60-350     2   57   74   0.250  -0.410        0
  4624  1458-71-64      2   57   74   0.250  -0.410        0
  4625  1458-71-365     2   57   74   0.250  -0.410        0
  4626  1460-66-1       2   57   74   0.250  -0.440        0
  4627  1460-71-64      2   57   74   0.250  -0.440        0
  4628  1460-71-365     2   57   74   0.250  -0.440        0
  4629  1429-17-85     -2   58   74   0.100  -0.440        0
  4630  1429-22-81     -2   58   74   0.100  -0.440        0
  4631  1429-42-355    -2   58   74   0.100  -0.440        0
  4632  1429-48-350    -2   58   74   0.100  -0.440        0
  4633  1429-56-20     -2   58   74   0.100  -0.440        0
  4634  1429-60-350    -2   58   74   0.100  -0.440        0
  4635  1429-66-53     -2   58   74   0.100  -0.440        0
  4636  1429-71-13     -2   58   74   0.100  -0.440        0
  4637  1429-71-365    -2   58   74   0.100  -0.440        0
  4638  1431-17-85      2   58   75   0.130  -0.370        0
  4639  1431-22-82      2   58   75   0.130  -0.370        0
  4640  1431-27-63      2   58   75   0.130  -0.370        0
  4641  1431-32-60      2   58   75   0.130  -0.370        0
  4642  1431-42-355     2   58   75   0.130  -0.370        0
  4643  1431-48-350     2   58   75   0.130  -0.370        0
  4644  1431-56-20      2   58   75   0.130  -0.370        0
  4645  1431-60-350     2   58   75   0.130  -0.370        0
  4646  1431-71-13      2   58   75   0.130  -0.370        0
  4647  1431-71-365     2   58   75   0.130  -0.370        0
  4648  1392-16-363    -2   59   73   0.320  -0.060        0
  4649  1397-22-80     -2   59   68   0.290   0.090        0
  4650  1397-42-355    -2   59   68   0.290   0.090        0
  4651  1397-48-355    -2   59   68   0.290   0.090        0
  4652  1397-55-361    -2   59   68   0.290   0.090        0
  4653  1397-61-14     -2   59   68   0.290   0.090        0
  4654  1397-66-12     -2   59   68   0.290   0.090        0
  4655  1397-71-68     -2   59   68   0.290   0.090        0
  4656  1397-71-365    -2   59   68   0.290   0.090        0
  4657  1426-12-95     -2   58   66   0.290   0.470        0
  4658  1426-17-82     -2   58   66   0.290   0.470        0
  4659  1426-22-80     -2   58   66   0.290   0.470        0
  4660  1426-26-288    -2   58   66   0.290   0.470        0
  4661  1426-42-356    -2   58   66   0.290   0.470        0
  4662  1426-48-355    -2   58   66   0.290   0.470        0
  4663  1426-55-350    -2   58   66   0.290   0.470        0
  4664  1426-61-13     -2   58   66   0.290   0.470        0
  4665  1426-66-12     -2   58   66   0.290   0.470        0
  4666  1426-71-54     -2   58   66   0.290   0.470        0
  4667  1426-71-365    -2   58   66   0.290   0.470        0
  4668  1411-56-25      1   59   66  -0.250  -0.220        0
  4669  1411-61-42      1   59   66  -0.250  -0.220        0
  4670  1411-66-12      1   59   66  -0.250  -0.220        0
  4671  1411-71-54      1   59   66  -0.250  -0.220        0
  4672  1411-71-365     1   59   66  -0.250  -0.220        0
  4673  1409-61-42     -2   59   66  -0.130  -0.180        0
  4674  1409-66-12     -2   59   66  -0.130  -0.180        0
  4675  1409-71-54     -2   59   66  -0.130  -0.180        0
  4676  1409-71-365    -2   59   66  -0.130  -0.180        0
  4677  1390-71-68     -2   60   65  -0.440  -0.360        0
  4678  1390-71-362    -2   60   65  -0.440  -0.360        0
  4679  1416-71-1      -2   59   63  -0.320  -0.110        0
  4680  1372-66-5       1   60   65   0.210   0.130        0
  4681  1372-71-68      1   60   65   0.210   0.130        0
  4682  1372-71-362     1   60   65   0.210   0.130        0
  4683  1312-12-265     1   61   66   0.320   0.440        0
  4684  1332-71-13      2   61   68  -0.030  -0.260        0
  4685  1332-71-362     2   61   68  -0.030  -0.260        0
  4686  1359-32-69     -2   60   73   0.200  -0.410        0
  4687  1359-37-95     -2   60   73   0.200  -0.410        0
  4688  1359-42-356    -2   60   73   0.200  -0.410        0
  4689  1359-48-334    -2   60   73   0.200  -0.410        0
  4690  1359-56-19     -2   60   73   0.200  -0.410        0
  4691  1359-60-321    -2   60   73   0.200  -0.410        0
  4692  1359-65-298    -2   60   73   0.200  -0.410        0
  4693  1359-71-14     -2   60   73   0.200  -0.410        0
  4694  1359-71-365    -2   60   73   0.200  -0.410        0
  4695  1333-7-28      -2   61   73  -0.230  -0.450        0
  4696  1333-12-95     -2   61   73  -0.230  -0.450        0
  4697  1333-17-87     -2   61   73  -0.230  -0.450        0
  4698  1333-32-69     -2   61   73  -0.230  -0.450        0
  4699  1333-56-19      2   61   73  -0.230  -0.450        0
  4700  1333-61-60      2   61   73  -0.230  -0.450        0
  4701  1333-66-25      2   61   73  -0.230  -0.450        0
  4702  1355-32-69      2   61   75  -0.500  -0.490        0
  4703  1355-37-95      2   61   75  -0.500  -0.490        0
  4704  1355-42-356     2   61   75  -0.500  -0.490        0
  4705  1355-48-344     2   61   75  -0.500  -0.490        0
  4706  1355-56-19      2   61   75  -0.500  -0.490        0
  4707  1355-61-60      2   61   75  -0.500  -0.490        0
  4708  1355-66-25      2   61   75  -0.500  -0.490        0
  4709  1355-71-40      2   61   75  -0.500  -0.490        0
  4710  1295-32-69      1   62   73  -0.150  -0.020        0
  4711  1295-37-95      1   62   73  -0.150  -0.020        0
  4712  1295-42-355     1   62   73  -0.150  -0.020        0
  4713  1295-56-19      1   62   73  -0.150  -0.020        0
  4714  1295-61-60      1   62   73  -0.150  -0.020        0
  4715  1289-48-344     2   62   74  -0.230   0.280        0
  4716  1289-56-20      2   62   74  -0.230   0.280        0
  4717  1289-61-60      2   62   74  -0.230   0.280        0
  4718  1289-66-25      2   62   74  -0.230   0.280        0
  4719  1289-71-40      2   62   74  -0.230   0.280        0
  4720  1856-33-79      2   51   86   0.150   0.140        0
  4721  1866-42-356     2   51   87   0.150  -0.440        0
  4722  1866-48-348     2   51   87   0.150  -0.440        0
  4723  1866-55-347     2   51   87   0.150  -0.440        0
  4724  1866-60-356     2   51   87   0.150  -0.440        0
  4725  1866-66-5      -2   51   87   0.150  -0.440        0
  4726  1866-71-39     -2   51   87   0.150  -0.440        0
  4727  1866-71-41     -2   51   87   0.150  -0.440        0
  4728  1866-71-365    -2   51   87   0.150  -0.440        0
  4729  1859-55-347     2   51   87   0.110  -0.440        0
  4730  1859-66-33     -2   51   87   0.110  -0.440        0
  4731  1860-42-356     2   51   87   0.110  -0.440        0
  4732  1860-48-348     2   51   87   0.110  -0.440        0
  4733  1860-56-5       2   51   87   0.110  -0.440        0
  4734  1860-66-5       2   51   87   0.110  -0.440        0
  4735  1860-71-365     2   51   87   0.110  -0.440        0
  4736  1867-66-5       2   51   87   0.110  -0.470        0
  4737  1867-71-365     2   51   87   0.110  -0.470        0
  4738  1855-66-5       2   51   87   0.150  -0.440        0
  4739  1855-71-365     2   51   87   0.150  -0.440        0
  4740  1876-42-362     2   51   85  -0.040   0.290        0
  4741  1876-48-338     2   51   85  -0.040   0.290        0
  4742  1876-56-16      2   51   85  -0.040   0.290        0
  4743  1750-56-16      2   52   85  -0.120   0.490        0
  4744  1750-61-53      2   52   85  -0.120   0.490        0
  4745  1750-66-27      2   52   85  -0.120   0.490        0
  4746  1730-56-16      2   52   86   0.110  -0.410        0
  4747  1730-61-53      2   52   86   0.110  -0.410        0
  4748  1730-66-31      2   52   86   0.110  -0.410        0
  4749  1835-22-32      2   51   86   0.380   0.460        0
  4750  1835-27-12      2   51   86   0.380   0.460        0
  4751  1831-1-365      2   51   87   0.410  -0.440        0
  4752  1801-22-32      2   52   86  -0.390   0.200        0
  4753  1801-27-12      2   52   86  -0.390   0.200        0
  4754  1739-56-16      2   52   86  -0.050  -0.410        0
  4755  1739-61-53      2   52   86  -0.050  -0.410        0
  4756  1739-66-27      2   52   86  -0.050  -0.410        0
  4757  1725-66-12      2   52   83   0.190   0.080        0
  4758  1725-71-365     2   52   83   0.190   0.080        0
  4759  1761-27-17      2   52   85  -0.200  -0.420        0
  4760  1761-32-60      2   52   85  -0.200  -0.420        0
  4761  1761-42-355     2   52   85  -0.200  -0.420        0
  4762  1761-48-350     2   52   85  -0.200  -0.420        0
  4763  1761-56-6       2   52   85  -0.200  -0.420        0
  4764  1761-66-1       2   52   85  -0.200  -0.420        0
  4765  1761-71-35      2   52   85  -0.200  -0.420        0
  4766  1761-71-365     2   52   85  -0.200  -0.420        0
  4767  1774-48-365    -2   52   85  -0.240  -0.460        0
  4768  1774-56-5      -2   52   85  -0.240  -0.460        0
  4769  1774-66-1      -2   52   85  -0.240  -0.460        0
  4770  1774-71-35     -2   52   85  -0.240  -0.460        0
  4771  1774-71-365    -2   52   85  -0.240  -0.460        0
  4772  1740-1-365      1   52   84   0.030   0.380        0
  4773  1740-16-356     1   52   84   0.030   0.380        0
  4774  1853-42-357    -2   51   82   0.190   0.490        0
  4775  1850-48-338     2   51   82   0.190   0.230        0
  4776  1850-56-16      2   51   82   0.190   0.230        0
  4777  1850-66-31      2   51   82   0.190   0.230        0
  4778  1850-71-40      2   51   82   0.190   0.230        0
  4779  1895-16-362     2   51   81  -0.380  -0.300        0
  4780  1895-22-32      2   51   81  -0.380  -0.300        0
  4781  1895-27-12      2   51   81  -0.380  -0.300        0
  4782  1737-43-32      2   52   81   0.080   0.260        0
  4783  1737-48-355     2   52   81   0.080   0.260        0
  4784  1737-56-5       2   52   81   0.080   0.260        0
  4785  1737-61-26      2   52   81   0.080   0.260        0
  4786  1737-66-28      2   52   81   0.080   0.260        0
  4787  1737-71-35      2   52   81   0.080   0.260        0
  4788  1737-71-365     2   52   81   0.080   0.260        0
  4789  1802-1-276      1   52   82  -0.380  -0.030        0
  4790  1802-4-104      1   52   82  -0.380  -0.030        0
  4791  1746-42-355     2   52   82   0.150   0.110        0
  4792  1746-48-355     2   52   82   0.150   0.110        0
  4793  1746-56-11      2   52   82   0.150   0.110        0
  4794  1746-61-33      2   52   82   0.150   0.110        0
  4795  1746-66-28      2   52   82   0.150   0.110        0
  4796  1746-71-33      2   52   82   0.150   0.110        0
  4797  1746-71-344     2   52   82   0.150   0.110        0
  4798  1940-42-355    -2   50   80   0.280  -0.400        0
  4799  1940-48-355    -2   50   80   0.280  -0.400        0
  4800  1940-56-5      -2   50   80   0.280  -0.400        0
  4801  1940-66-1      -2   50   80   0.280  -0.400        0
  4802  1940-71-35     -2   50   80   0.280  -0.400        0
  4803  1940-71-365    -2   50   80   0.280  -0.400        0
  4804  1925-48-355     2   50   79   0.200   0.470        0
  4805  1925-56-5       2   50   79   0.200   0.470        0
  4806  1925-61-26      2   50   79   0.200   0.470        0
  4807  1925-66-32      2   50   79   0.200   0.470        0
  4808  1925-71-35      2   50   79   0.200   0.470        0
  4809  1925-71-365     2   50   79   0.200   0.470        0
  4810  1733-2-93       1   52   79   0.120  -0.280        0
  4811  1732-12-114     2   52   79   0.080  -0.020        0
  4812  1732-16-362     2   52   79   0.080  -0.020        0
  4813  1732-27-90      2   52   79   0.080  -0.020        0
  4814  1732-32-60      2   52   79   0.080  -0.020        0
  4815  1732-42-357     2   52   79   0.080  -0.020        0
  4816  1732-48-341     2   52   79   0.080  -0.020        0
  4817  1732-56-16      2   52   79   0.080  -0.020        0
  4818  1809-48-355     2   52   80  -0.420   0.480        0
  4819  1809-55-346     2   52   80  -0.420   0.480        0
  4820  1809-60-364     2   52   80  -0.420   0.480        0
  4821  1809-66-28      2   52   80  -0.420   0.480        0
  4822  1809-71-39      2   52   80  -0.420   0.480        0
  4823  1809-71-365     2   52   80  -0.420   0.480        0
  4824  1731-56-5       2   52   81   0.040  -0.460        0
  4825  1731-60-351     2   52   81   0.040  -0.460        0
  4826  1731-65-364     2   52   81   0.040  -0.460        0
  4827  1731-71-35      2   52   81   0.040  -0.460        0
  4828  1731-71-365     2   52   81   0.040  -0.460        0
  4829  1915-56-13      2   50   78   0.360   0.100        0
  4830  1915-60-351     2   50   78   0.360   0.100        0
  4831  1915-66-32      2   50   78   0.360   0.100        0
  4832  1915-71-55      2   50   78   0.360   0.100        0
  4833  1915-71-365     2   50   78   0.360   0.100        0
  4834  1869-1-365      1   51   78   0.090  -0.320        0
  4835  1884-1-52       1   51   78  -0.140   0.460        0
  4836  1910-66-32      2   50   77   0.440  -0.360        0
  4837  1910-71-365     2   50   77   0.440  -0.360        0
  4838  1887-66-32      2   51   77  -0.180  -0.360        0
  4839  1887-71-365     2   51   77  -0.180  -0.360        0
  4840  1854-66-48      2   51   77   0.200  -0.160        0
  4841  1885-7-322      1   51   77  -0.140   0.160        0
  4842  1885-12-116     1   51   77  -0.140   0.160        0
  4843  1790-66-48      2   52   78  -0.340  -0.420        0
  4844  1836-66-48      2   51   77   0.390  -0.390        0
  4845  1783-66-48      2   52   77  -0.300  -0.160        0
  4846  1846-48-355     2   52   78  -0.380   0.430        0
  4847  1846-55-327     2   52   78  -0.380   0.430        0
  4848  1846-61-14      2   52   78  -0.380   0.430        0
  4849  1846-66-48      2   52   78  -0.380   0.430        0
  4850  1846-71-365     2   52   78  -0.380   0.430        0
  4851  1845-48-355     2   51   78   0.320  -0.120        0
  4852  1845-55-360     2   51   78   0.320  -0.120        0
  4853  1845-61-11      2   51   78   0.320  -0.120        0
  4854  1845-66-32      2   51   78   0.320  -0.120        0
  4855  1845-71-365     2   51   78   0.320  -0.120        0
  4856  1916-56-5      -2   50   76   0.320   0.250        0
  4857  1916-66-32     -2   50   76   0.320   0.250        0
  4858  1916-71-365    -2   50   76   0.320   0.250        0
  4859  1911-56-5       2   50   76   0.360   0.250        0
  4860  1911-66-32      2   50   76   0.360   0.250        0
  4861  1911-71-365     2   50   76   0.360   0.250        0
  4862  1897-12-114     2   51   77  -0.410  -0.460        0
  4863  1897-27-10      2   51   77  -0.410  -0.460        0
  4864  1893-66-32      2   51   76  -0.330   0.310        0
  4865  1893-71-365     2   51   76  -0.330   0.310        0
  4866  1917-48-355     2   50   75   0.360  -0.150        0
  4867  1917-66-32      2   50   75   0.360  -0.150        0
  4868  1917-71-344     2   50   75   0.360  -0.150        0
  4869  1672-66-45      2   53   76  -0.300  -0.300        0
  4870  1647-12-332     2   53   76   0.350  -0.400        0
  4871  1647-16-355     2   53   76   0.350  -0.400        0
  4872  1659-22-81     -2   53   76   0.120   0.090        0
  4873  1659-42-356    -2   53   76   0.120   0.090        0
  4874  1659-48-355     2   53   76   0.120   0.090        0
  4875  1659-56-6       2   53   76   0.120   0.090        0
  4876  1659-60-354     2   53   76   0.120   0.090        0
  4877  1659-66-45     -2   53   76   0.120   0.090        0
  4878  1659-71-365    -2   53   76   0.120   0.090        0
  4879  1682-48-355     2   52   75   0.430   0.080        0
  4880  1707-42-355     2   52   75   0.430   0.080        0
  4881  1707-48-355     2   52   75   0.430   0.080        0
  4882  1707-56-26      2   52   75   0.430   0.080        0
  4883  1707-60-354     2   52   75   0.430   0.080        0
  4884  1707-66-45      2   52   75   0.430   0.080        0
  4885  1707-71-365     2   52   75   0.430   0.080        0
  4886  1712-42-355     2   52   75   0.350  -0.080        0
  4887  1712-48-355     2   52   75   0.350  -0.080        0
  4888  1712-56-5       2   52   75   0.350  -0.080        0
  4889  1712-61-14      2   52   75   0.350  -0.080        0
  4890  1712-65-355     2   52   75   0.350  -0.080        0
  4891  1712-71-67      2   52   75   0.350  -0.080        0
  4892  1712-71-365     2   52   75   0.350  -0.080        0
  4893  1671-22-79     -2   53   75  -0.070   0.280        0
  4894  1671-42-355     2   53   75  -0.070   0.280        0
  4895  1671-48-355     2   53   75  -0.070   0.280        0
  4896  1671-56-20      2   53   75  -0.070   0.280        0
  4897  1627-22-82      2   54   76  -0.460  -0.100        0
  4898  1627-32-90      2   54   76  -0.460  -0.100        0
  4899  1627-37-90      2   54   76  -0.460  -0.100        0
  4900  1627-42-356     2   54   76  -0.460  -0.100        0
  4901  1627-48-350     2   54   76  -0.460  -0.100        0
  4902  1627-55-360     2   54   76  -0.460  -0.100        0
  4903  1627-61-12      2   54   76  -0.460  -0.100        0
  4904  1627-66-1       2   54   76  -0.460  -0.100        0
  4905  1627-71-53      2   54   76  -0.460  -0.100        0
  4906  1627-71-365     2   54   76  -0.460  -0.100        0
  4907  1607-1-276     -2   54   76  -0.120  -0.300        0
  4908  1607-6-269     -2   54   76  -0.120  -0.300        0
  4909  1607-11-269    -2   54   76  -0.120  -0.300        0
  4910  1598-66-45      2   54   76   0.150   0.030        0
  4911  1643-27-90     -2   53   78   0.190   0.370        0
  4912  1632-22-82      2   53   77   0.500   0.070        0
  4913  1632-27-15      2   53   77   0.500   0.070        0
  4914  1632-32-77      2   53   77   0.500   0.070        0
  4915  1632-42-356     2   53   77   0.500   0.070        0
  4916  1632-48-355     2   53   77   0.500   0.070        0
  4917  1632-56-6       2   53   77   0.500   0.070        0
  4918  1632-60-354     2   53   77   0.500   0.070        0
  4919  1632-66-48      2   53   77   0.500   0.070        0
  4920  1632-71-53      2   53   77   0.500   0.070        0
  4921  1632-71-365     2   53   77   0.500   0.070        0
  4922  1677-32-64      2   53   81  -0.080  -0.450        0
  4923  1677-42-355     2   53   81  -0.080  -0.450        0
  4924  1677-48-351     2   53   81  -0.080  -0.450        0
  4925  1677-56-5       2   53   81  -0.080  -0.450        0
  4926  1677-61-26      2   53   81  -0.080  -0.450        0
  4927  1677-66-39      2   53   81  -0.080  -0.450        0
  4928  1677-71-35      2   53   81  -0.080  -0.450        0
  4929  1677-71-365     2   53   81  -0.080  -0.450        0
  4930  1646-27-90      2   53   80   0.070  -0.430        0
  4931  1646-32-64      2   53   80   0.070  -0.430        0
  4932  1646-42-355     2   53   80   0.070  -0.430        0
  4933  1646-48-350     2   53   80   0.070  -0.430        0
  4934  1646-56-5       2   53   80   0.070  -0.430        0
  4935  1646-61-26      2   53   80   0.070  -0.430        0
  4936  1646-66-39      2   53   80   0.070  -0.430        0
  4937  1646-71-39      2   53   80   0.070  -0.430        0
  4938  1646-71-365     2   53   80   0.070  -0.430        0
  4939  1602-42-355     2   54   80  -0.010  -0.270        0
  4940  1602-48-350     2   54   80  -0.010  -0.270        0
  4941  1602-71-35      2   54   80  -0.010  -0.270        0
  4942  1602-71-365     2   54   80  -0.010  -0.270        0
  4943  1601-42-355    -2   54   80  -0.010  -0.230        0
  4944  1601-48-350    -2   54   80  -0.010  -0.230        0
  4945  1601-55-348    -2   54   80  -0.010  -0.230        0
  4946  1601-61-14     -2   54   80  -0.010  -0.230        0
  4947  1601-66-19     -2   54   80  -0.010  -0.230        0
  4948  1601-71-35     -2   54   80  -0.010  -0.230        0
  4949  1601-71-365     2   54   80  -0.010  -0.230        0
  4950  1674-10-253     2   53   82  -0.280   0.140        0
  4951  1676-42-355     2   53   82  -0.240   0.140        0
  4952  1676-48-350     2   53   82  -0.240   0.140        0
  4953  1676-55-349     2   53   82  -0.240   0.140        0
  4954  1676-61-27      2   53   82  -0.240   0.140        0
  4955  1676-66-19      2   53   82  -0.240   0.140        0
  4956  1676-71-35      2   53   82  -0.240   0.140        0
  4957  1676-71-365     2   53   82  -0.240   0.140        0
  4958  1645-32-77      2   53   81   0.190   0.420        0
  4959  1645-42-355     2   53   81   0.190   0.420        0
  4960  1645-55-360     2   53   81   0.190   0.420        0
  4961  1645-60-356     2   53   81   0.190   0.420        0
  4962  1645-66-1       2   53   81   0.190   0.420        0
  4963  1645-71-35      2   53   81   0.190   0.420        0
  4964  1645-71-365     2   53   81   0.190   0.420        0
  4965  1604-32-77      2   54   81  -0.010  -0.320        0
  4966  1604-42-355     2   54   81  -0.010  -0.320        0
  4967  1604-48-350     2   54   81  -0.010  -0.320        0
  4968  1604-55-360     2   54   81  -0.010  -0.320        0
  4969  1604-60-362     2   54   81  -0.010  -0.320        0
  4970  1604-71-48      2   54   81  -0.010  -0.320        0
  4971  1604-71-365     2   54   81  -0.010  -0.320        0
  4972  1640-55-360    -2   53   84   0.220   0.380        0
  4973  1640-60-356    -2   53   84   0.220   0.380        0
  4974  1640-66-19     -2   53   84   0.220   0.380        0
  4975  1640-71-22     -2   53   84   0.220   0.380        0
  4976  1640-71-365    -2   53   84   0.220   0.380        0
  4977  1720-66-5       2   52   86   0.260   0.270        0
  4978  1720-71-22      2   52   86   0.260   0.270        0
  4979  1720-71-365     2   52   86   0.260   0.270        0
  4980  1706-33-318     2   52   85   0.340   0.260        0
  4981  1669-7-32       2   53   85  -0.200  -0.230        0
  4982  1669-12-106     2   53   85  -0.200  -0.230        0
  4983  1669-32-68      2   53   85  -0.200  -0.230        0
  4984  1669-38-60      2   53   85  -0.200  -0.230        0
  4985  1669-42-354     2   53   85  -0.200  -0.230        0
  4986  1622-32-68      2   54   85  -0.400  -0.090        0
  4987  1622-38-60      2   54   85  -0.400  -0.090        0
  4988  1622-42-354     2   54   85  -0.400  -0.090        0
  4989  1622-48-341     2   54   85  -0.400  -0.090        0
  4990  1622-56-17      2   54   85  -0.400  -0.090        0
  4991  1622-61-54      2   54   85  -0.400  -0.090        0
  4992  1622-66-32      2   54   85  -0.400  -0.090        0
  4993  1556-61-27     -2   55   86  -0.100   0.050        0
  4994  1556-66-5      -2   55   86  -0.100   0.050        0
  4995  1556-71-22     -2   55   86  -0.100   0.050        0
  4996  1556-71-365    -2   55   86  -0.100   0.050        0
  4997  1553-7-336      2   55   84  -0.060  -0.230        0
  4998  1553-12-106     2   55   84  -0.060  -0.230        0
  4999  1553-42-354     2   55   84  -0.060  -0.230        0
  5000  1553-48-341     2   55   84  -0.060  -0.230        0
  5001  1568-33-234     2   55   84  -0.100  -0.260        0
  5002  1568-48-341     2   55   84  -0.100  -0.260        0
  5003  1594-71-22      2   54   83   0.290   0.090        0
  5004  1594-71-365     2   54   83   0.290   0.090        0
  5005  1563-32-68      2   55   83  -0.290  -0.170        0
  5006  1563-37-48      2   55   83  -0.290  -0.170        0
  5007  1563-42-355     2   55   83  -0.290  -0.170        0
  5008  1563-48-348     2   55   83  -0.290  -0.170        0
  5009  1563-56-6       2   55   83  -0.290  -0.170        0
  5010  1553-15-99      2   55   84  -0.060  -0.230        0
  5011  1522-42-355     2   55   84   0.480   0.160        0
  5012  1522-48-348     2   55   84   0.480   0.160        0
  5013  1527-55-354    -2   56   84  -0.490   0.190        0
  5014  1527-61-54     -2   56   84  -0.490   0.190        0
  5015  1527-66-32     -2   56   84  -0.490   0.190        0
  5016  1527-71-22     -2   56   84  -0.490   0.190        0
  5017  1527-71-365     2   56   84  -0.490   0.190        0
  5018  1589-42-355     2   54   82   0.480   0.470        0
  5019  1589-48-350     2   54   82   0.480   0.470        0
  5020  1589-55-360     2   54   82   0.480   0.470        0
  5021  1589-61-14      2   54   82   0.480   0.470        0
  5022  1589-66-32      2   54   82   0.480   0.470        0
  5023  1589-71-22      2   54   82   0.480   0.470        0
  5024  1589-71-365     2   54   82   0.480   0.470        0
  5025  1586-32-68      2   54   81   0.490   0.170        0
  5026  1586-48-356     2   54   81   0.490   0.170        0
  5027  1586-56-6       2   54   81   0.490   0.170        0
  5028  1586-60-356     2   54   81   0.490   0.170        0
  5029  1586-66-1       2   54   81   0.490   0.170        0
  5030  1586-71-35      2   54   81   0.490   0.170        0
  5031  1586-71-365     2   54   81   0.490   0.170        0
  5032  1532-42-355     2   55   81   0.180   0.330        0
  5033  1532-48-348     2   55   81   0.180   0.330        0
  5034  1532-55-354     2   55   81   0.180   0.330        0
  5035  1532-61-28      2   55   81   0.180   0.330        0
  5036  1532-66-46      2   55   81   0.180   0.330        0
  5037  1532-71-22      2   55   81   0.180   0.330        0
  5038  1532-71-365     2   55   81   0.180   0.330        0
  5039  1534-42-355     2   55   81   0.440  -0.350        0
  5040  1534-48-348     2   55   81   0.440  -0.350        0
  5041  1534-55-360     2   55   81   0.440  -0.350        0
  5042  1534-61-5       2   55   81   0.440  -0.350        0
  5043  1534-66-46      2   55   81   0.440  -0.350        0
  5044  1534-71-35      2   55   81   0.440  -0.350        0
  5045  1534-71-365     2   55   81   0.440  -0.350        0
  5046  1524-42-355     2   55   82   0.480   0.440        0
  5047  1524-48-348     2   55   82   0.480   0.440        0
  5048  1524-56-6       2   55   82   0.480   0.440        0
  5049  1524-60-356     2   55   82   0.480   0.440        0
  5050  1524-66-1       2   55   82   0.480   0.440        0
  5051  1524-71-48      2   55   82   0.480   0.440        0
  5052  1524-71-365     2   55   82   0.480   0.440        0
  5053  1561-21-340     2   55   80  -0.170  -0.070        0
  5054  1561-32-64      2   55   80  -0.170  -0.070        0
  5055  1561-42-355     2   55   80  -0.170  -0.070        0
  5056  1561-48-350     2   55   80  -0.170  -0.070        0
  5057  1561-55-360     2   55   80  -0.170  -0.070        0
  5058  1561-61-26      2   55   80  -0.170  -0.070        0
  5059  1561-66-46      2   55   80  -0.170  -0.070        0
  5060  1561-71-39      2   55   80  -0.170  -0.070        0
  5061  1561-71-365     2   55   80  -0.170  -0.070        0
  5062  1571-2-94       1   55   79  -0.360   0.250        0
  5063  1572-48-356     2   55   79  -0.390  -0.140        0
  5064  1572-56-6       2   55   79  -0.390  -0.140        0
  5065  1572-61-26      2   55   79  -0.390  -0.140        0
  5066  1572-66-12      2   55   79  -0.390  -0.140        0
  5067  1572-71-48      2   55   79  -0.390  -0.140        0
  5068  1572-71-365     2   55   79  -0.390  -0.140        0
  5069  1549-21-319     2   55   80  -0.050  -0.430        0
  5070  1549-56-6       2   55   80  -0.050  -0.430        0
  5071  1549-60-356     2   55   80  -0.050  -0.430        0
  5072  1549-65-350     2   55   80  -0.050  -0.430        0
  5073  1549-71-67      2   55   80  -0.050  -0.430        0
  5074  1549-71-365     2   55   80  -0.050  -0.430        0
  5075  1547-27-62      2   55   79   0.180   0.150        0
  5076  1521-42-355     2   56   79  -0.210   0.150        0
  5077  1521-48-350     2   56   79  -0.210   0.150        0
  5078  1521-55-360     2   56   79  -0.210   0.150        0
  5079  1521-60-356     2   56   79  -0.210   0.150        0
  5080  1521-66-46      2   56   79  -0.210   0.150        0
  5081  1521-71-48      2   56   79  -0.210   0.150        0
  5082  1521-71-365     2   56   79  -0.210   0.150        0
  5083  1573-48-356     2   55   77  -0.320   0.230        0
  5084  1573-55-360     2   55   77  -0.320   0.230        0
  5085  1573-60-357     2   55   77  -0.320   0.230        0
  5086  1573-66-54      2   55   77  -0.320   0.230        0
  5087  1573-71-19      2   55   77  -0.320   0.230        0
  5088  1573-71-365     2   55   77  -0.320   0.230        0
  5089  1545-32-77     -2   55   77   0.140   0.200        0
  5090  1545-42-356     2   55   77   0.140   0.200        0
  5091  1545-48-350     2   55   77   0.140   0.200        0
  5092  1545-56-11      2   55   77   0.140   0.200        0
  5093  1545-61-14      2   55   77   0.140   0.200        0
  5094  1545-66-54      2   55   77   0.140   0.200        0
  5095  1545-71-19      2   55   77   0.140   0.200        0
  5096  1545-71-365     2   55   77   0.140   0.200        0
  5097  1535-42-356     2   55   78   0.330  -0.440        0
  5098  1535-48-350     2   55   78   0.330  -0.440        0
  5099  1535-56-11      2   55   78   0.330  -0.440        0
  5100  1535-60-357     2   55   78   0.330  -0.440        0
  5101  1535-66-47      2   55   78   0.330  -0.440        0
  5102  1535-71-19      2   55   78   0.330  -0.440        0
  5103  1535-71-365     2   55   78   0.330  -0.440        0
  5104  1507-42-356     2   56   77   0.100   0.070        0
  5105  1507-48-350     2   56   77   0.100   0.070        0
  5106  1507-56-11      2   56   77   0.100   0.070        0
  5107  1507-60-357     2   56   77   0.100   0.070        0
  5108  1507-66-54      2   56   77   0.100   0.070        0
  5109  1507-71-19      2   56   77   0.100   0.070        0
  5110  1507-71-365     2   56   77   0.100   0.070        0
  5111  1523-16-54     -2   56   77  -0.360   0.200        0
  5112  1575-22-81      2   55   76  -0.430   0.350        0
  5113  1575-32-77      2   55   76  -0.430   0.350        0
  5114  1575-42-356     2   55   76  -0.430   0.350        0
  5115  1575-48-350     2   55   76  -0.430   0.350        0
  5116  1575-55-343     2   55   76  -0.430   0.350        0
  5117  1575-61-11      2   55   76  -0.430   0.350        0
  5118  1575-71-365     2   55   76  -0.430   0.350        0
  5119  1577-22-81     -2   55   75  -0.470   0.310        0
  5120  1580-42-355     2   55   75  -0.470   0.310        0
  5121  1580-48-355     2   55   75  -0.470   0.310        0
  5122  1580-56-13      2   55   75  -0.470   0.310        0
  5123  1580-61-12      2   55   75  -0.470   0.310        0
  5124  1580-66-54      2   55   75  -0.470   0.310        0
  5125  1580-71-365     2   55   75  -0.470   0.310        0
  5126  1536-17-79      2   55   75   0.220  -0.080        0
  5127  1536-22-82      2   55   75   0.220  -0.080        0
  5128  1536-32-77      2   55   75   0.220  -0.080        0
  5129  1536-42-356     2   55   75   0.220  -0.080        0
  5130  1536-48-350     2   55   75   0.220  -0.080        0
  5131  1536-55-340     2   55   75   0.220  -0.080        0
  5132  1536-66-54      2   55   75   0.220  -0.080        0
  5133  1536-71-365     2   55   75   0.220  -0.080        0
  5134  1516-42-356     2   56   76  -0.200  -0.430        0
  5135  1516-48-350     2   56   76  -0.200  -0.430        0
  5136  1516-56-11      2   56   76  -0.200  -0.430        0
  5137  1516-61-27      2   56   76  -0.200  -0.430        0
  5138  1516-66-54      2   56   76  -0.200  -0.430        0
  5139  1516-71-365     2   56   76  -0.200  -0.430        0
  5140  1528-22-82      2   55   76   0.380   0.060        0
  5141  1528-27-63      2   55   76   0.380   0.060        0
  5142  1528-32-77      2   55   76   0.380   0.060        0
  5143  1528-65-350     2   55   76   0.380   0.060        0
  5144  1528-71-365     2   55   76   0.380   0.060        0
  5145  1514-42-356     2   56   76  -0.090   0.320        0
  5146  1514-48-350     2   56   76  -0.090   0.320        0
  5147  1514-55-340     2   56   76  -0.090   0.320        0
  5148  1514-61-27      2   56   76  -0.090   0.320        0
  5149  1514-66-54      2   56   76  -0.090   0.320        0
  5150  1514-71-48      2   56   76  -0.090   0.320        0
  5151  1514-71-365     2   56   76  -0.090   0.320        0
  5152  1495-42-356     2   56   77   0.410   0.170        0
  5153  1495-48-350     2   56   77   0.410   0.170        0
  5154  1495-55-343     2   56   77   0.410   0.170        0
  5155  1495-61-41      2   56   77   0.410   0.170        0
  5156  1495-66-54      2   56   77   0.410   0.170        0
  5157  1495-71-19      2   56   77   0.410   0.170        0
  5158  1495-71-365     2   56   77   0.410   0.170        0
  5159  1484-37-343     2   57   77  -0.320  -0.250        0
  5160  1484-42-356     2   57   77  -0.320  -0.250        0
  5161  1484-56-11      2   57   77  -0.320  -0.250        0
  5162  1484-60-357     2   57   77  -0.320  -0.250        0
  5163  1484-66-53      2   57   77  -0.320  -0.250        0
  5164  1484-71-19      2   57   77  -0.320  -0.250        0
  5165  1484-71-365     2   57   77  -0.320  -0.250        0
  5166  1463-56-34      1   57   77   0.100  -0.290        0
  5167  1463-60-357     1   57   77   0.100  -0.290        0
  5168  1463-66-53      1   57   77   0.100  -0.290        0
  5169  1463-71-19      1   57   77   0.100  -0.290        0
  5170  1463-71-365     1   57   77   0.100  -0.290        0
  5171  1483-42-355     2   57   80  -0.220   0.230        0
  5172  1483-48-348     2   57   80  -0.220   0.230        0
  5173  1483-56-6       2   57   80  -0.220   0.230        0
  5174  1483-60-357     2   57   80  -0.220   0.230        0
  5175  1483-66-46      2   57   80  -0.220   0.230        0
  5176  1483-71-35      2   57   80  -0.220   0.230        0
  5177  1483-71-365     2   57   80  -0.220   0.230        0
  5178  1437-16-300    -2   58   80  -0.260  -0.450        0
  5179  1437-22-32     -2   58   80  -0.260  -0.450        0
  5180  1437-27-12     -2   58   80  -0.260  -0.450        0
  5181  1438-42-362     2   58   79  -0.330   0.090        0
  5182  1438-56-20      2   58   79  -0.330   0.090        0
  5183  1438-61-53      2   58   79  -0.330   0.090        0
  5184  1438-66-32      2   58   79  -0.330   0.090        0
  5185  1438-71-40      2   58   79  -0.330   0.090        0
  5186  1445-27-76      2   57   81   0.470  -0.410        0
  5187  1445-32-55      2   57   81   0.470  -0.410        0
  5188  1445-42-356     2   57   81   0.470  -0.410        0
  5189  1445-48-348     2   57   81   0.470  -0.410        0
  5190  1445-55-360     2   57   81   0.470  -0.410        0
  5191  1445-60-357     2   57   81   0.470  -0.410        0
  5192  1445-66-1       2   57   81   0.470  -0.410        0
  5193  1445-71-35      2   57   81   0.470  -0.410        0
  5194  1445-71-365     2   57   81   0.470  -0.410        0
  5195  1489-32-63      2   57   82  -0.410  -0.370        0
  5196  1489-42-355     2   57   82  -0.410  -0.370        0
  5197  1489-48-348     2   57   82  -0.410  -0.370        0
  5198  1489-55-353     2   57   82  -0.410  -0.370        0
  5199  1489-61-28      2   57   82  -0.410  -0.370        0
  5200  1489-66-39      2   57   82  -0.410  -0.370        0
  5201  1489-71-22      2   57   82  -0.410  -0.370        0
  5202  1489-71-365     2   57   82  -0.410  -0.370        0
  5203  1469-42-355     2   57   82   0.090   0.410        0
  5204  1469-48-348     2   57   82   0.090   0.410        0
  5205  1469-55-357     2   57   82   0.090   0.410        0
  5206  1469-61-54      2   57   82   0.090   0.410        0
  5207  1494-66-46      2   56   83   0.360  -0.460        0
  5208  1469-71-71      2   57   82   0.090   0.410        0
  5209  1469-71-365     2   57   82   0.090   0.410        0
  5210  1464-12-102     2   57   83   0.010  -0.170        0
  5211  1464-32-63      2   57   83   0.010  -0.170        0
  5212  1464-42-354     2   57   83   0.010  -0.170        0
  5213  1439-37-90      2   58   83  -0.380  -0.300        0
  5214  1439-42-355     2   58   83  -0.380  -0.300        0
  5215  1439-48-348     2   58   83  -0.380  -0.300        0
  5216  1439-56-6       2   58   83  -0.380  -0.300        0
  5217  1439-61-28      2   58   83  -0.380  -0.300        0
  5218  1439-66-46      2   58   83  -0.380  -0.300        0
  5219  1439-71-71      2   58   83  -0.380  -0.300        0
  5220  1439-71-365     2   58   83  -0.380  -0.300        0
  5221  1435-42-355     2   58   83  -0.150   0.000        0
  5222  1435-48-348     2   58   83  -0.150   0.000        0
  5223  1435-55-361     2   58   83  -0.150   0.000        0
  5224  1435-61-11      2   58   83  -0.150   0.000        0
  5225  1435-66-49      2   58   83  -0.150   0.000        0
  5226  1435-71-71      2   58   83  -0.150   0.000        0
  5227  1435-71-365     2   58   83  -0.150   0.000        0
  5228  1449-37-30     -2   57   85   0.350  -0.050        0
  5229  1414-7-138      2   59   85  -0.470   0.210        0
  5230  1414-32-64      2   59   85  -0.470   0.210        0
  5231  1414-38-60      2   59   85  -0.470   0.210        0
  5232  1414-42-354     2   59   85  -0.470   0.210        0
  5233  1379-71-356     2   60   85  -0.130  -0.310        0
  5234  1425-2-94       2   58   84   0.380   0.040        0
  5235  1425-16-359     2   58   84   0.380   0.040        0
  5236  1425-22-32      2   58   84   0.380   0.040        0
  5237  1425-27-12      2   58   84   0.380   0.040        0
  5238  1382-42-355     2   60   83  -0.350  -0.330        0
  5239  1382-48-348     2   60   83  -0.350  -0.330        0
  5240  1382-56-6       2   60   83  -0.350  -0.330        0
  5241  1382-61-54      2   60   83  -0.350  -0.330        0
  5242  1382-66-46      2   60   83  -0.350  -0.330        0
  5243  1382-71-22      2   60   83  -0.350  -0.330        0
  5244  1382-71-365     2   60   83  -0.350  -0.330        0
  5245  1413-32-64     -2   59   80  -0.220  -0.390        0
  5246  1413-37-48     -2   59   80  -0.220  -0.390        0
  5247  1413-56-6       2   59   80  -0.220  -0.390        0
  5248  1413-61-26      2   59   80  -0.220  -0.390        0
  5249  1413-66-53      2   59   80  -0.220  -0.390        0
  5250  1413-71-48      2   59   80  -0.220  -0.390        0
  5251  1395-32-64      2   59   79   0.390   0.000        0
  5252  1395-42-355     2   59   79   0.390   0.000        0
  5253  1395-48-348     2   59   79   0.390   0.000        0
  5254  1395-56-6       2   59   79   0.390   0.000        0
  5255  1395-61-26      2   59   79   0.390   0.000        0
  5256  1395-66-1       2   59   79   0.390   0.000        0
  5257  1395-71-48      2   59   79   0.390   0.000        0
  5258  1395-71-365     2   59   79   0.390   0.000        0
  5259  1377-35-16      2   60   79   0.080  -0.260        0
  5260  1377-42-355     2   60   79   0.080  -0.260        0
  5261  1377-48-348     2   60   79   0.080  -0.260        0
  5262  1377-56-6       2   60   79   0.080  -0.260        0
  5263  1377-61-26      2   60   79   0.080  -0.260        0
  5264  1377-66-53      2   60   79   0.080  -0.260        0
  5265  1377-71-365     2   60   79   0.080  -0.260        0
  5266  1394-42-355     2   59   80   0.270   0.490        0
  5267  1394-48-348     2   59   80   0.270   0.490        0
  5268  1394-56-6       2   59   80   0.270   0.490        0
  5269  1394-61-26      2   59   80   0.270   0.490        0
  5270  1394-66-53      2   59   80   0.270   0.490        0
  5271  1394-71-365     2   59   80   0.270   0.490        0
  5272  1375-32-64      2   60   81   0.150  -0.470        0
  5273  1375-42-355     2   60   81   0.150  -0.470        0
  5274  1375-48-348     2   60   81   0.150  -0.470        0
  5275  1375-56-6       2   60   81   0.150  -0.470        0
  5276  1375-61-26      2   60   81   0.150  -0.470        0
  5277  1375-66-53      2   60   81   0.150  -0.470        0
  5278  1375-71-365     2   60   81   0.150  -0.470        0
  5279  1396-17-90      2   59   77   0.280  -0.350        0
  5280  1396-22-81      2   59   77   0.280  -0.350        0
  5281  1396-32-63      2   59   77   0.280  -0.350        0
  5282  1396-42-355     2   59   77   0.280  -0.350        0
  5283  1396-48-350     2   59   77   0.280  -0.350        0
  5284  1396-56-11      2   59   77   0.280  -0.350        0
  5285  1396-61-26      2   59   77   0.280  -0.350        0
  5286  1396-66-53      2   59   77   0.280  -0.350        0
  5287  1396-71-365     2   59   77   0.280  -0.350        0
  5288  1415-22-82      1   59   76  -0.450  -0.160        0
  5289  1415-32-63      1   59   76  -0.450  -0.160        0
  5290  1415-37-90      2   59   76  -0.450  -0.160        0
  5291  1415-42-355     2   59   76  -0.450  -0.160        0
  5292  1415-48-350     2   59   76  -0.450  -0.160        0
  5293  1415-56-11      2   59   76  -0.450  -0.160        0
  5294  1415-61-27      2   59   76  -0.450  -0.160        0
  5295  1415-66-49      2   59   76  -0.450  -0.160        0
  5296  1415-71-365     2   59   76  -0.450  -0.160        0
  5297  1323-2-88       2   61   78   0.110  -0.210        0
  5298  1368-17-85     -2   60   77   0.310  -0.350        0
  5299  1368-22-81     -2   60   77   0.310  -0.350        0
  5300  1368-27-15      2   60   77   0.310  -0.350        0
  5301  1368-42-355     2   60   77   0.310  -0.350        0
  5302  1368-55-339     2   60   77   0.310  -0.350        0
  5303  1368-66-49     -2   60   77   0.310  -0.350        0
  5304  1368-71-365    -2   60   77   0.310  -0.350        0
  5305  1327-71-365     2   61   80   0.030   0.110        0
  5306  1369-71-365     2   60   79   0.270   0.490        0
  5307  1326-71-365     2   61   79   0.070   0.390        0
  5308  1302-71-365     2   62   80  -0.430  -0.380        0
  5309  1269-37-48      2   62   83   0.140  -0.420        0
  5310  1269-66-1       2   62   83   0.140  -0.420        0
  5311  1269-71-365     2   62   83   0.140  -0.420        0
  5312  1277-66-59      2   62   83   0.100  -0.420        0
  5313  1330-48-345     2   61   83  -0.010  -0.060        0
  5314  1330-56-17      2   61   83  -0.010  -0.060        0
  5315  1322-2-94       2   61   83   0.100  -0.190        0
  5316  1331-48-345     2   61   83  -0.130   0.290        0
  5317  1331-56-17      2   61   83  -0.130   0.290        0
  5318  1331-61-54      2   61   83  -0.130   0.290        0
  5319  1331-66-32      2   61   83  -0.130   0.290        0
  5320  1331-71-40      2   61   83  -0.130   0.290        0
  5321  1276-12-99      2   62   84   0.130   0.470        0
  5322  1276-17-90      2   62   84   0.130   0.470        0
  5323  1771-33-65      3   52   91  -0.250   0.150        0
  5324  1880-42-356     3   52   91  -0.140  -0.180        0
  5325  1880-48-335     3   52   91  -0.140  -0.180        0
  5326  1880-61-60      3   52   91  -0.140  -0.180        0
  5327  1880-66-25      3   52   91  -0.140  -0.180        0
  5328  1735-34-152     3   52   91   0.050  -0.020        0
  5329  1840-16-362     2   51   89   0.330   0.260        0
  5330  1794-3-36       1   51   91   0.400  -0.440        0
  5331  1794-16-362     1   51   91   0.400  -0.440        0
  5332  1794-27-12      1   51   91   0.400  -0.440        0
  5333  1794-71-39      1   51   91   0.400  -0.440        0
  5334  1794-71-365     1   51   91   0.400  -0.440        0
  5335  1796-16-362     3   52   90  -0.400  -0.190        0
  5336  1806-55-348     3   52   90  -0.440   0.140        0
  5337  1806-60-364     3   52   90  -0.440   0.140        0
  5338  1806-66-1       3   52   90  -0.440   0.140        0
  5339  1806-71-39      3   52   90  -0.440   0.140        0
  5340  1806-71-365     3   52   90  -0.440   0.140        0
  5341  1788-55-348     2   52   90  -0.360   0.140        0
  5342  1788-60-364     2   52   90  -0.360   0.140        0
  5343  1788-66-21      2   52   90  -0.360   0.140        0
  5344  1788-71-39      2   52   90  -0.360   0.140        0
  5345  1788-71-365     2   52   90  -0.360   0.140        0
  5346  1782-42-355     3   52   90  -0.330   0.140        0
  5347  1782-48-348     3   52   90  -0.330   0.140        0
  5348  1782-55-348     3   52   90  -0.330   0.140        0
  5349  1782-60-364     3   52   90  -0.330   0.140        0
  5350  1782-66-28      3   52   90  -0.330   0.140        0
  5351  1782-71-39      2   52   90  -0.330   0.140        0
  5352  1782-71-365     2   52   90  -0.330   0.140        0
  5353  1807-66-28      2   52   90  -0.440   0.140        0
  5354  1807-71-39      2   52   90  -0.440   0.140        0
  5355  1807-71-365     2   52   90  -0.440   0.140        0
  5356  1896-55-348     2   51   87  -0.430   0.400        0
  5357  1881-71-39      2   51   88  -0.200  -0.370        0
  5358  1881-71-365     2   51   88  -0.200  -0.370        0
  5359  1841-1-357      2   51   87   0.340  -0.210        0
  5360  1773-34-91      2   52   87  -0.240   0.410        0
  5361  1821-48-302     2   51   88   0.490   0.280        0
  5362  1798-16-362     2   52   88  -0.400   0.280        0
  5363  1797-48-348     2   52   89  -0.400  -0.390        0
  5364  1797-55-348     2   52   89  -0.400  -0.390        0
  5365  1797-60-354     2   52   89  -0.400  -0.390        0
  5366  1797-66-28      2   52   89  -0.400  -0.390        0
  5367  1797-71-39      2   52   89  -0.400  -0.390        0
  5368  1797-71-365     2   52   89  -0.400  -0.390        0
  5369  1789-42-356     2   52   89  -0.360  -0.390        0
  5370  1789-55-348     2   52   89  -0.360  -0.390        0
  5371  1789-60-364     2   52   89  -0.360  -0.390        0
  5372  1789-66-28      2   52   89  -0.360  -0.390        0
  5373  1789-71-39      2   52   89  -0.360  -0.390        0
  5374  1789-71-365     2   52   89  -0.360  -0.390        0
  5375  1780-66-28      2   52   89  -0.400  -0.390        0
  5376  1780-71-39      2   52   89  -0.400  -0.390        0
  5377  1780-71-365     2   52   89  -0.400  -0.390        0
  5378  1799-42-356     2   52   88  -0.400  -0.270        0
  5379  1799-48-335     2   52   88  -0.400  -0.270        0
  5380  1736-34-152     2   52   88   0.060  -0.170        0
  5381  1613-42-355     2   54   87  -0.250  -0.140        0
  5382  1613-48-348     2   54   87  -0.250  -0.140        0
  5383  1613-55-348     2   54   87  -0.250  -0.140        0
  5384  1613-61-41      2   54   87  -0.250  -0.140        0
  5385  1613-66-12      2   54   87  -0.250  -0.140        0
  5386  1613-71-22      2   54   87  -0.250  -0.140        0
  5387  1613-71-365     2   54   87  -0.250  -0.140        0
  5388  1606-55-348     2   54   87  -0.020   0.150        0
  5389  1606-61-41      2   54   87  -0.020   0.150        0
  5390  1606-66-12      2   54   87  -0.020   0.150        0
  5391  1606-71-22      2   54   87  -0.020   0.150        0
  5392  1606-71-365     2   54   87  -0.020   0.150        0
  5393  1620-2-90       2   54   88  -0.370  -0.230        0
  5394  1620-12-324     2   54   88  -0.370  -0.230        0
  5395  1620-16-362     2   54   88  -0.370  -0.230        0
  5396  1705-48-335     2   52   92   0.320   0.320        0
  5397  1705-56-16      2   52   92   0.320   0.320        0
  5398  1705-61-60      2   52   92   0.320   0.320        0
  5399  1705-66-25      2   52   92   0.320   0.320        0
  5400  1530-48-335     3   55   88   0.350   0.200        0
  5401  1530-56-16      3   55   88   0.350   0.200        0
  5402  1530-61-60      3   55   88   0.350   0.200        0
  5403  1434-37-27      3   58   87  -0.310  -0.360        0
  5404  1434-42-356     3   58   87  -0.310  -0.360        0
  5405  1434-56-17      3   58   87  -0.310  -0.360        0
  5406  1434-60-321     3   58   87  -0.310  -0.360        0
  5407  1434-65-298     3   58   87  -0.310  -0.360        0
  5408  1434-71-365     3   58   87  -0.310  -0.360        0
  5409  1384-48-335     3   59   88   0.480  -0.050        0
  5410  1344-48-348     3   61   87  -0.290   0.330        0
  5411  1344-55-348     3   61   87  -0.290   0.330        0
  5412  1344-61-41      3   61   87  -0.290   0.330        0
  5413  1344-66-5       3   61   87  -0.290   0.330        0
  5414  1344-71-356     3   61   87  -0.290   0.330        0
  5415  1354-2-93       2   61   87  -0.480  -0.260        0
  5416  1354-7-52       2   61   87  -0.480  -0.260        0
  5417  1354-12-102     2   61   87  -0.480  -0.260        0
  5418  1354-17-71      2   61   87  -0.480  -0.260        0
  5419  1354-22-32      2   61   87  -0.480  -0.260        0
  5420  1354-32-90      2   61   87  -0.480  -0.260        0
  5421  1354-38-60      2   61   87  -0.480  -0.260        0
  5422  1358-32-90      3   61   87  -0.290  -0.350        0
  5423  1358-48-336     3   61   87  -0.290  -0.350        0
  5424  846-17-5        3   73   19  -0.300  -0.090        0
  5425  846-22-33       3   73   19  -0.300  -0.090        0
  5426  846-48-348      3   73   19  -0.300  -0.090        0
  5427  846-61-25       3   73   19  -0.300  -0.090        0
  5428  846-65-362      3   73   19  -0.300  -0.090        0
  5429  846-71-365      3   73   19  -0.300  -0.090        0
  5430  829-48-348      3   74   18  -0.310   0.420        0
  5431  829-55-353      3   74   18  -0.310   0.420        0
  5432  829-61-35       3   74   18  -0.310   0.420        0
  5433  829-65-362      3   74   18  -0.310   0.420        0
  5434  829-71-365      3   74   18  -0.310   0.420        0
  5435  839-12-121     -2   73   19   0.310   0.010        0
  5436  839-71-365     -2   73   19   0.310   0.010        0
  5437  817-1-220       2   74   19   0.080   0.140        0
  5438  817-6-331       2   74   19   0.080   0.140        0
  5439  817-12-8        2   74   19   0.080   0.140        0
  5440  813-32-87       3   74   19   0.110  -0.420        0
  5441  813-37-33       3   74   19   0.110  -0.420        0
  5442  813-42-350      3   74   19   0.110  -0.420        0
  5443  813-48-348      3   74   19   0.110  -0.420        0
  5444  813-56-17       3   74   19   0.110  -0.420        0
  5445  813-60-323      3   74   19   0.110  -0.420        0
  5446  813-65-301      3   74   19   0.110  -0.420        0
  5447  813-71-365      3   74   19   0.110  -0.420        0
  5448  818-17-5        2   74   19   0.080  -0.160        0
  5449  820-1-108       2   74   20  -0.030   0.150        0
  5450  812-17-5       -2   74   19   0.160   0.430        0
  5451  812-36-157     -2   74   19   0.160   0.430        0
  5452  812-56-17      -2   74   19   0.160   0.430        0
  5453  812-61-61      -2   74   19   0.160   0.430        0
  5454  812-66-19      -2   74   19   0.160   0.430        0
  5455  811-56-19       2   74   19   0.040   0.330        0
  5456  811-66-20       2   74   19   0.040   0.330        0
  5457  796-65-362      2   75   20  -0.270  -0.050        0
  5458  796-71-365      2   75   20  -0.270  -0.050        0
  5459  833-8-18       -2   73   21   0.470   0.130        0
  5460  822-1-63        2   74   21  -0.110   0.060        0
  5461  830-1-365       2   74   22  -0.340  -0.450        0
  5462  821-56-17       3   74   21  -0.140   0.390        0
  5463  821-61-61       3   74   21  -0.140   0.390        0
  5464  845-1-73        2   73   24  -0.360   0.190        0
  5465  845-7-2         2   73   24  -0.360   0.190        0
  5466  845-11-272      2   73   24  -0.360   0.190        0
  5467  845-16-318      2   73   24  -0.360   0.190        0
  5468  845-22-33       2   73   24  -0.360   0.190        0
  5469  845-31-351      2   73   24  -0.360   0.190        0
  5470  845-36-62       2   73   24  -0.360   0.190        0
  5471  845-42-350      2   73   24  -0.360   0.190        0
  5472  845-48-348      2   73   24  -0.360   0.190        0
  5473  845-56-19       2   73   24  -0.360   0.190        0
  5474  845-60-323      2   73   24  -0.360   0.190        0
  5475  845-65-301      2   73   24  -0.360   0.190        0
  5476  845-71-13       2   73   24  -0.360   0.190        0
  5477  1183-16-315    -2   64   29   0.310  -0.420        0
  5478  1183-26-354    -2   64   29   0.310  -0.420        0
  5479  1183-31-362    -2   64   29   0.310  -0.420        0
  5480  1183-36-356    -2   64   29   0.310  -0.420        0
  5481  1183-42-350    -2   64   29   0.310  -0.420        0
  5482  1183-48-348    -2   64   29   0.310  -0.420        0
  5483  1183-66-25     -2   64   29   0.310  -0.420        0
  5484  1183-71-365    -2   64   29   0.310  -0.420        0
  5485  1190-56-23     -2   64   29   0.310   0.290        0
  5486  1190-61-54     -2   64   29   0.310   0.290        0
  5487  1190-66-25     -2   64   29   0.310   0.290        0
  5488  1186-3-344      2   64   30   0.310  -0.380        0
  5489  1186-5-69       2   64   30   0.310  -0.380        0
  5490  1186-17-6       2   64   30   0.310  -0.380        0
  5491  1185-10-213     2   64   30   0.310  -0.350        0
  5492  1178-38-335     3   64   32   0.350   0.320        0
  5493  1178-42-349     3   64   32   0.350   0.320        0
  5494  1178-48-349     3   64   32   0.350   0.320        0
  5495  1178-55-353     3   64   32   0.350   0.320        0
  5496  1178-61-21      3   64   32   0.350   0.320        0
  5497  1178-66-34      3   64   32   0.350   0.320        0
  5498  1178-71-365     3   64   32   0.350   0.320        0
  5499  1182-66-25      2   64   31   0.350   0.310        0
  5500  1132-12-4       2   66   32  -0.420   0.250        0
  5501  1134-1-73       2   66   32  -0.500   0.380        0
  5502  1148-17-12     -2   65   36   0.280   0.290        0
  5503  1148-21-356    -2   65   36   0.280   0.290        0
  5504  1148-27-27     -2   65   36   0.280   0.290        0
  5505  1148-31-348    -2   65   36   0.280   0.290        0
  5506  1148-37-23     -2   65   36   0.280   0.290        0
  5507  1148-42-349    -2   65   36   0.280   0.290        0
  5508  1148-48-348    -2   65   36   0.280   0.290        0
  5509  1148-55-353    -2   65   36   0.280   0.290        0
  5510  1148-61-34     -2   65   36   0.280   0.290        0
  5511  1148-66-6      -2   65   36   0.280   0.290        0
  5512  1148-71-365    -2   65   36   0.280   0.290        0
  5513  1177-35-321     3   64   35   0.400  -0.470        0
  5514  1177-42-349     3   64   35   0.400  -0.470        0
  5515  1177-48-348     3   64   35   0.400  -0.470        0
  5516  1177-55-353     3   64   35   0.400  -0.470        0
  5517  1177-61-21      3   64   35   0.400  -0.470        0
  5518  1177-66-34      3   64   35   0.400  -0.470        0
  5519  1177-71-50      3   64   35   0.400  -0.470        0
  5520  1105-12-4       2   66   36   0.240   0.350        0
  5521  1105-16-333     2   66   36   0.240   0.350        0
  5522  1105-21-356     2   66   36   0.240   0.350        0
  5523  1106-42-349     3   66   37   0.310  -0.480        0
  5524  1106-55-353     3   66   37   0.310  -0.480        0
  5525  1106-61-13      3   66   37   0.310  -0.480        0
  5526  1106-66-6       3   66   37   0.310  -0.480        0
  5527  1106-71-365     3   66   37   0.310  -0.480        0
  5528  1102-66-6       3   66   37   0.280   0.400        0
  5529  1102-71-365     3   66   37   0.280   0.400        0
  5530  1120-3-152      2   66   38  -0.220  -0.250        0
  5531  1089-42-349    -2   66   34   0.420   0.430        0
  5532  1089-48-349    -2   66   34   0.420   0.430        0
  5533  1089-55-353    -2   66   34   0.420   0.430        0
  5534  1089-61-34     -2   66   34   0.420   0.430        0
  5535  1089-66-6      -2   66   34   0.420   0.430        0
  5536  1089-71-365    -2   66   34   0.420   0.430        0
  5537  1093-66-6       3   66   34   0.420   0.400        0
  5538  1093-71-365     3   66   34   0.420   0.400        0
  5539  1087-48-349    -2   66   33   0.420  -0.460        0
  5540  1087-61-24     -2   66   33   0.420  -0.460        0
  5541  1087-71-70     -2   66   33   0.420  -0.460        0
  5542  1097-15-1       3   66   41   0.360  -0.280        0
  5543  996-26-315      3   68   33   0.330  -0.400        0
  5544  996-48-349      3   68   33   0.330  -0.400        0
  5545  996-55-353      3   68   33   0.330  -0.400        0
  5546  996-61-11       3   68   33   0.330  -0.400        0
  5547  996-66-6        3   68   33   0.330  -0.400        0
  5548  996-71-365      3   68   33   0.330  -0.400        0
  5549  995-39-335     -2   68   34   0.340   0.360        0
  5550  995-42-349     -2   68   34   0.340   0.360        0
  5551  995-55-353     -2   68   34   0.340   0.360        0
  5552  995-61-34      -2   68   34   0.340   0.360        0
  5553  995-66-6       -2   68   34   0.340   0.360        0
  5554  995-71-365      3   68   34   0.340   0.360        0
  5555  1090-12-5       2   66   30   0.490   0.100        0
  5556  1090-17-5       2   66   30   0.490   0.100        0
  5557  969-56-19       3   69   26  -0.410   0.350        0
  5558  969-71-365      3   69   26  -0.410   0.350        0
  5559  983-42-349      3   68   30   0.440   0.420        0
  5560  983-55-353      3   68   30   0.440   0.420        0
  5561  983-61-34       3   68   30   0.440   0.420        0
  5562  983-66-6        3   68   30   0.440   0.420        0
  5563  983-71-365      3   68   30   0.440   0.420        0
  5564  982-39-238      3   68   30   0.480  -0.130        0
  5565  921-42-305      3   70   33   0.250  -0.400        0
  5566  921-48-349      3   70   33   0.250  -0.400        0
  5567  921-61-34       3   70   33   0.250  -0.400        0
  5568  921-65-356      3   70   33   0.250  -0.400        0
  5569  921-71-365      3   70   33   0.250  -0.400        0
  5570  924-43-60       3   70   34   0.210   0.390        0
  5571  924-48-348      3   70   34   0.210   0.390        0
  5572  924-55-353      3   70   34   0.210   0.390        0
  5573  924-61-34       3   70   34   0.210   0.390        0
  5574  924-66-6        3   70   34   0.210   0.390        0
  5575  924-71-365      3   70   34   0.210   0.390        0
  5576  909-56-16       3   71   32  -0.490  -0.380        0
  5577  911-34-337      3   70   31   0.470  -0.390        0
  5578  900-56-19      -2   71   27  -0.310   0.060        0
  5579  900-61-61      -2   71   27  -0.310   0.060        0
  5580  848-56-18      -2   73   28  -0.310  -0.290        0
  5581  848-66-28      -2   73   28  -0.310  -0.290        0
  5582  826-56-19       2   74   28  -0.200   0.330        0
  5583  800-61-61       2   74   28   0.330   0.290        0
  5584  800-66-28       2   74   28   0.330   0.290        0
  5585  803-33-59       2   74   29   0.370  -0.320        0
  5586  852-2-305       2   72   35   0.320   0.200        0
  5587  1249-56-27      2   62   61   0.470   0.000        0
  5588  1249-66-13      2   62   61   0.470   0.000        0
  5589  1249-71-365     2   62   61   0.470   0.000        0
  5590  1235-22-32     -2   63   61  -0.230  -0.290        0
  5591  1235-42-362    -2   63   61  -0.230  -0.290        0
  5592  1235-48-357    -2   63   61  -0.230  -0.290        0
  5593  1235-56-32     -2   63   61  -0.230  -0.290        0
  5594  1238-48-320     3   63   61  -0.270  -0.230        0
  5595  1238-56-10      3   63   61  -0.270  -0.230        0
  5596  1238-66-10      3   63   61  -0.270  -0.230        0
  5597  1238-71-41      2   63   61  -0.270  -0.230        0
  5598  1238-71-365     2   63   61  -0.270  -0.230        0
  5599  1225-1-365      1   63   61   0.270   0.200        0
  5600  1200-56-30      2   64   61  -0.080  -0.420        0
  5601  1200-66-10      1   64   61  -0.080  -0.420        0
  5602  1200-71-40      1   64   61  -0.080  -0.420        0
  5603  1198-71-48      1   64   62   0.110  -0.250        0
  5604  1262-48-320     3   62   61   0.310  -0.460        0
  5605  1262-56-10      3   62   61   0.310  -0.460        0
  5606  1262-60-362     3   62   61   0.310  -0.460        0
  5607  1262-66-10      3   62   61   0.310  -0.460        0
  5608  1262-71-41      2   62   61   0.310  -0.460        0
  5609  1263-48-320     2   62   61   0.310  -0.490        0
  5610  1263-56-10      2   62   61   0.310  -0.490        0
  5611  1263-60-362     2   62   61   0.310  -0.490        0
  5612  1263-66-10      2   62   61   0.310  -0.490        0
  5613  1263-71-60      2   62   61   0.310  -0.490        0
  5614  1263-71-365     2   62   61   0.310  -0.490        0
  5615  1239-17-44     -3   63   60  -0.270  -0.140        0
  5616  1239-22-32     -3   63   60  -0.270  -0.140        0
  5617  1239-43-5      -2   63   60  -0.270  -0.140        0
  5618  1239-48-364    -2   63   60  -0.270  -0.140        0
  5619  1239-56-41     -2   63   60  -0.270  -0.140        0
  5620  1239-60-362    -2   63   60  -0.270  -0.140        0
  5621  1239-66-10     -2   63   60  -0.270  -0.140        0
  5622  1239-71-365    -3   63   60  -0.270  -0.140        0
  5623  1232-48-321     2   63   60  -0.040  -0.140        0
  5624  1232-56-27      2   63   60  -0.040  -0.140        0
  5625  1232-60-361     2   63   60  -0.040  -0.140        0
  5626  1232-66-10      2   63   60  -0.040  -0.140        0
  5627  1232-71-41      2   63   60  -0.040  -0.140        0
  5628  1241-56-27      2   63   60  -0.300   0.280        0
  5629  1241-66-10      1   63   60  -0.300   0.280        0
  5630  1241-71-40      1   63   60  -0.300   0.280        0
  5631  1270-56-30      2   62   59   0.240   0.310        0
  5632  1270-71-42      1   62   59   0.240   0.310        0
  5633  1273-43-1       2   62   59   0.200   0.010        0
  5634  1273-48-364     2   62   59   0.200   0.010        0
  5635  1273-56-32      2   62   59   0.200   0.010        0
  5636  1273-60-362     2   62   59   0.200   0.010        0
  5637  1273-65-348     2   62   59   0.200   0.010        0
  5638  1273-71-365     2   62   59   0.200   0.010        0
  5639  1256-1-365      2   62   59   0.390   0.080        0
  5640  1234-43-5      -2   63   59  -0.420   0.470        0
  5641  1234-48-364    -2   63   59  -0.420   0.470        0
  5642  1234-56-32     -2   63   59  -0.420   0.470        0
  5643  1234-60-362    -2   63   59  -0.420   0.470        0
  5644  1233-56-32      2   63   60  -0.040  -0.460        0
  5645  1233-65-337     1   63   60  -0.040  -0.460        0
  5646  1233-71-365     1   63   60  -0.040  -0.460        0
  5647  1227-17-44     -2   63   59   0.420   0.470        0
  5648  1227-22-58     -2   63   59   0.420   0.470        0
  5649  1227-31-335    -2   63   59   0.420   0.470        0
  5650  1227-43-5      -2   63   59   0.420   0.470        0
  5651  1227-48-364    -2   63   59   0.420   0.470        0
  5652  1227-56-32     -2   63   59   0.420   0.470        0
  5653  1227-61-60     -2   63   59   0.420   0.470        0
  5654  1227-71-365    -2   63   59   0.420   0.470        0
  5655  1208-1-364      2   64   59  -0.230  -0.020        0
  5656  1208-6-360      2   64   59  -0.230  -0.020        0
  5657  1208-11-360     2   64   59  -0.230  -0.020        0
  5658  1208-16-357     2   64   59  -0.230  -0.020        0
  5659  1208-21-361     2   64   59  -0.230  -0.020        0
  5660  1208-26-354     2   64   59  -0.230  -0.020        0
  5661  1208-31-362     2   64   59  -0.230  -0.020        0
  5662  1219-22-33     -3   63   60   0.390   0.190        0
  5663  1219-33-165    -2   63   60   0.390   0.190        0
  5664  1219-42-362    -2   63   60   0.390   0.190        0
  5665  1219-48-357    -2   63   60   0.390   0.190        0
  5666  1219-56-32     -2   63   60   0.390   0.190        0
  5667  1219-60-362    -2   63   60   0.390   0.190        0
  5668  1219-66-10     -2   63   60   0.390   0.190        0
  5669  1219-71-365    -3   63   60   0.390   0.190        0
  5670  1217-56-27      2   63   60   0.460   0.120        0
  5671  1217-71-365     1   63   60   0.460   0.120        0
  5672  1205-33-160    -3   64   60  -0.160   0.380        0
  5673  1205-42-362    -2   64   60  -0.160   0.380        0
  5674  1205-48-357    -2   64   60  -0.160   0.380        0
  5675  1205-56-34     -2   64   60  -0.160   0.380        0
  5676  1205-66-10     -2   64   60  -0.160   0.380        0
  5677  1231-7-66      -3   63   58   0.270   0.230        0
  5678  1231-12-57     -3   63   58   0.270   0.230        0
  5679  1231-17-4      -3   63   58   0.270   0.230        0
  5680  1231-22-32     -3   63   58   0.270   0.230        0
  5681  1231-27-10     -3   63   58   0.270   0.230        0
  5682  1231-31-335    -3   63   58   0.270   0.230        0
  5683  1231-37-335    -2   63   58   0.270   0.230        0
  5684  1179-6-115      1   64   58   0.460  -0.190        0
  5685  1168-17-47      2   65   58  -0.240  -0.030        0
  5686  1168-22-32      2   65   58  -0.240  -0.030        0
  5687  1168-36-335     2   65   58  -0.240  -0.030        0
  5688  1114-1-365      1   66   57   0.140  -0.040        0
  5689  1122-17-47      2   66   58  -0.280   0.140        0
  5690  1122-22-32      2   66   58  -0.280   0.140        0
  5691  1122-42-356     2   66   58  -0.280   0.140        0
  5692  1122-48-335     2   66   58  -0.280   0.140        0
  5693  1140-7-66      -3   65   58   0.410  -0.220        0
  5694  1140-12-57     -3   65   58   0.410  -0.220        0
  5695  1140-17-4      -3   65   58   0.410  -0.220        0
  5696  1140-22-32     -3   65   58   0.410  -0.220        0
  5697  1140-31-335    -2   65   58   0.410  -0.220        0
  5698  1140-36-345    -2   65   58   0.410  -0.220        0
  5699  1193-48-321    -2   64   60   0.190   0.350        0
  5700  1193-56-30     -2   64   60   0.190   0.350        0
  5701  1176-48-320     3   64   61   0.490  -0.420        0
  5702  1176-56-10      3   64   61   0.490  -0.420        0
  5703  1176-60-361     3   64   61   0.490  -0.420        0
  5704  1176-66-10      3   64   61   0.490  -0.420        0
  5705  1176-71-40      2   64   61   0.490  -0.420        0
  5706  1176-71-365     2   64   61   0.490  -0.420        0
  5707  1159-66-10      1   65   60  -0.120   0.380        0
  5708  1159-71-62      1   65   60  -0.120   0.380        0
  5709  1159-71-365     1   65   60  -0.120   0.380        0
  5710  1160-71-62     -2   65   60  -0.120   0.190        0
  5711  1160-71-365    -2   65   60  -0.120   0.190        0
  5712  1147-42-356     3   65   60   0.180   0.220        0
  5713  1147-48-335     3   65   60   0.180   0.220        0
  5714  1147-56-17      3   65   60   0.180   0.220        0
  5715  1141-1-274      3   65   59   0.380  -0.120        0
  5716  1141-7-176      3   65   59   0.380  -0.120        0
  5717  1141-11-311     3   65   59   0.380  -0.120        0
  5718  1141-17-44      3   65   59   0.380  -0.120        0
  5719  1141-22-30      3   65   59   0.380  -0.120        0
  5720  1141-26-349     3   65   59   0.380  -0.120        0
  5721  1141-31-362     3   65   59   0.380  -0.120        0
  5722  1141-36-356     3   65   59   0.380  -0.120        0
  5723  1141-42-362     3   65   59   0.380  -0.120        0
  5724  1141-48-364     3   65   59   0.380  -0.120        0
  5725  1141-56-32      3   65   59   0.380  -0.120        0
  5726  1141-60-362     3   65   59   0.380  -0.120        0
  5727  1141-66-1       3   65   59   0.380  -0.120        0
  5728  1141-71-365     2   65   59   0.380  -0.120        0
  5729  1121-17-44     -3   66   60  -0.240   0.120        0
  5730  1121-22-33     -3   66   60  -0.240   0.120        0
  5731  1121-31-335    -3   66   60  -0.240   0.120        0
  5732  1121-35-345    -2   66   60  -0.240   0.120        0
  5733  1121-42-356    -2   66   60  -0.240   0.120        0
  5734  1121-48-355    -2   66   60  -0.240   0.120        0
  5735  1121-56-32     -2   66   60  -0.240   0.120        0
  5736  1121-60-362    -2   66   60  -0.240   0.120        0
  5737  1121-65-348    -3   66   60  -0.240   0.120        0
  5738  1121-71-365    -3   66   60  -0.240   0.120        0
  5739  1192-71-55      2   64   62   0.260   0.010        0
  5740  1157-48-322     3   65   62  -0.050  -0.350        0
  5741  1157-56-10      3   65   62  -0.050  -0.350        0
  5742  1157-60-361     3   65   62  -0.050  -0.350        0
  5743  1157-66-10      3   65   62  -0.050  -0.350        0
  5744  1157-71-40      2   65   62  -0.050  -0.350        0
  5745  1180-48-323     2   64   61   0.420   0.100        0
  5746  1167-71-365    -2   65   61  -0.310   0.200        0
  5747  1170-71-365    -2   65   61  -0.350   0.390        0
  5748  1172-71-365     1   65   62  -0.390  -0.450        0
  5749  1163-71-365    -2   65   61  -0.240  -0.060        0
  5750  1155-71-365     1   65   61  -0.010  -0.260        0
  5751  1144-71-365    -2   65   62   0.300   0.010        0
  5752  1080-22-33      1   67   62  -0.320  -0.350        0
  5753  1080-31-335     1   67   62  -0.320  -0.350        0
  5754  1080-42-356     1   67   62  -0.320  -0.350        0
  5755  1080-48-355     1   67   62  -0.320  -0.350        0
  5756  1085-42-356    -3   67   62  -0.400  -0.280        0
  5757  1085-48-355    -3   67   62  -0.400  -0.280        0
  5758  1091-71-56      2   66   61   0.480  -0.230        0
  5759  1048-71-365    -3   67   61   0.360  -0.030        0
  5760  1012-71-365    -3   68   61   0.090  -0.190        0
  5761  1039-48-322     2   68   62  -0.480  -0.180        0
  5762  1039-56-30      2   68   62  -0.480  -0.180        0
  5763  1039-60-362     2   68   62  -0.480  -0.180        0
  5764  1039-66-13      2   68   62  -0.480  -0.180        0
  5765  1039-71-365     2   68   62  -0.480  -0.180        0
  5766  1040-71-365     1   68   62  -0.480  -0.220        0
  5767  1075-17-44     -3   67   60  -0.170  -0.010        0
  5768  1075-22-33     -3   67   60  -0.170  -0.010        0
  5769  1075-31-335    -3   67   60  -0.170  -0.010        0
  5770  1053-42-357     3   67   59   0.250  -0.340        0
  5771  1056-48-335     3   67   59   0.210  -0.340        0
  5772  1056-56-17      3   67   59   0.210  -0.340        0
  5773  1016-17-32      3   68   59  -0.020  -0.340        0
  5774  1016-31-335     3   68   59  -0.020  -0.340        0
  5775  1016-37-319     3   68   59  -0.020  -0.340        0
  5776  1011-22-33     -3   68   59   0.090  -0.020        0
  5777  1015-42-356     2   68   60  -0.020  -0.400        0
  5778  1015-48-337     2   68   60  -0.020  -0.400        0
  5779  1015-56-19      2   68   60  -0.020  -0.400        0
  5780  1015-61-53      2   68   60  -0.020  -0.400        0
  5781  1015-66-32      2   68   60  -0.020  -0.400        0
  5782  1094-1-277      1   66   58   0.410   0.230        0
  5783  1094-6-340      1   66   58   0.410   0.230        0
  5784  1094-10-27      1   66   58   0.410   0.230        0
  5785  1077-7-176     -2   67   57  -0.290   0.060        0
  5786  1063-17-46     -3   67   57   0.140   0.190        0
  5787  1063-22-33     -3   67   57   0.140   0.190        0
  5788  1034-36-335    -2   68   57  -0.410   0.260        0
  5789  1034-42-362    -2   68   57  -0.410   0.260        0
  5790  1034-48-357    -2   68   57  -0.410   0.260        0
  5791  1034-56-34     -2   68   57  -0.410   0.260        0
  5792  1034-66-1      -2   68   57  -0.410   0.260        0
  5793  1034-71-54     -2   68   57  -0.410   0.260        0
  5794  1034-71-365    -2   68   57  -0.410   0.260        0
  5795  997-17-46       2   68   57   0.210  -0.170        0
  5796  997-22-33       2   68   57   0.210  -0.170        0
  5797  1008-1-121      1   68   57   0.130   0.190        0
  5798  1049-17-46     -2   67   58   0.250  -0.450        0
  5799  1049-31-335    -2   67   58   0.250  -0.450        0
  5800  1049-36-335    -2   67   58   0.250  -0.450        0
  5801  1049-42-356    -2   67   58   0.250  -0.450        0
  5802  1049-48-334    -2   67   58   0.250  -0.450        0
  5803  1049-56-18     -2   67   58   0.250  -0.450        0
  5804  1049-61-53     -2   67   58   0.250  -0.450        0
  5805  1007-11-194     2   68   58   0.130  -0.290        0
  5806  1007-17-4       2   68   58   0.130  -0.290        0
  5807  1007-22-32      2   68   58   0.130  -0.290        0
  5808  1007-27-10      2   68   58   0.130  -0.290        0
  5809  1007-31-335     2   68   58   0.130  -0.290        0
  5810  1007-37-319     2   68   58   0.130  -0.290        0
  5811  1006-1-364      2   68   58   0.130   0.230        0
  5812  1006-7-66       2   68   58   0.130   0.230        0
  5813  1006-11-258     2   68   58   0.130   0.230        0
  5814  1006-17-44      2   68   58   0.130   0.230        0
  5815  1065-42-356     2   67   56   0.060   0.020        0
  5816  1065-48-334     2   67   56   0.060   0.020        0
  5817  1065-56-18      2   67   56   0.060   0.020        0
  5818  1065-66-24      2   67   56   0.060   0.020        0
  5819  991-22-34       2   68   56   0.360   0.020        0
  5820  991-26-279      2   68   56   0.360   0.020        0
  5821  991-31-335      2   68   56   0.360   0.020        0
  5822  991-37-319      2   68   56   0.360   0.020        0
  5823  991-42-356      2   68   56   0.360   0.020        0
  5824  991-48-334      2   68   56   0.360   0.020        0
  5825  991-66-27       2   68   56   0.360   0.020        0
  5826  976-1-365       1   69   58  -0.370  -0.030        0
  5827  963-1-365       1   69   58  -0.140  -0.060        0
  5828  964-1-365       1   69   58  -0.140  -0.320        0
  5829  960-1-365       1   69   58  -0.100   0.230        0
  5830  953-1-364       1   69   58   0.200   0.200        0
  5831  950-17-4        1   69   58   0.240   0.200        0
  5832  936-1-365       2   70   57  -0.110  -0.100        0
  5833  932-1-365       1   70   57   0.120  -0.070        0
  5834  944-42-356      2   70   58  -0.380  -0.320        0
  5835  944-48-341      2   70   58  -0.380  -0.320        0
  5836  926-1-365       1   70   58   0.200  -0.320        0
  5837  929-1-364       1   70   58   0.160  -0.320        0
  5838  929-6-340       1   70   58   0.160  -0.320        0
  5839  929-11-333      1   70   58   0.160  -0.320        0
  5840  929-16-301      1   70   58   0.160  -0.320        0
  5841  974-42-362      3   69   60  -0.370   0.450        0
  5842  974-48-336      3   69   60  -0.370   0.450        0
  5843  974-56-18       3   69   60  -0.370   0.450        0
  5844  957-1-365       1   69   60   0.090  -0.270        0
  5845  942-1-365       1   70   59  -0.380   0.440        0
  5846  937-1-364       1   70   59  -0.150  -0.310        0
  5847  943-22-32       2   70   59  -0.150  -0.240        0
  5848  943-26-279      2   70   59  -0.150  -0.240        0
  5849  943-31-335      2   70   59  -0.150  -0.240        0
  5850  943-36-335      2   70   59  -0.150  -0.240        0
  5851  943-42-351      2   70   59  -0.150  -0.240        0
  5852  943-48-336      2   70   59  -0.150  -0.240        0
  5853  862-22-33      -3   72   61   0.110   0.430        0
  5854  862-27-59      -3   72   61   0.110   0.430        0
  5855  862-31-335     -3   72   61   0.110   0.430        0
  5856  862-36-336     -3   72   61   0.110   0.430        0
  5857  862-42-351     -3   72   61   0.110   0.430        0
  5858  862-48-337     -3   72   61   0.110   0.430        0
  5859  901-1-364       1   71   60  -0.310   0.160        0
  5860  907-37-342     -2   71   60  -0.420  -0.330        0
  5861  903-1-365       1   71   60  -0.340  -0.270        0
  5862  895-42-356      3   71   60  -0.120  -0.200        0
  5863  895-48-337      3   71   60  -0.120  -0.200        0
  5864  898-1-32        2   71   59  -0.190  -0.380        0
  5865  898-17-4        2   71   59  -0.190  -0.380        0
  5866  889-22-32      -3   71   59   0.190  -0.380        0
  5867  889-26-279     -3   71   59   0.190  -0.380        0
  5868  889-31-335     -3   71   59   0.190  -0.380        0
  5869  889-36-336     -3   71   59   0.190  -0.380        0
  5870  889-42-356     -3   71   59   0.190  -0.380        0
  5871  889-48-337     -3   71   59   0.190  -0.380        0
  5872  889-61-54      -3   71   59   0.190  -0.380        0
  5873  883-42-356      1   71   59   0.230   0.340        0
  5874  621-37-343     -2   72   59   0.220   0.080        0
  5875  934-33-21       3   70   60   0.040   0.320        0
  5876  863-1-365       2   72   60   0.110   0.480        0
  5877  914-48-336      2   70   58   0.430   0.140        0
  5878  914-61-55       2   70   58   0.430   0.140        0
  5879  902-17-47      -3   71   58  -0.310   0.170        0
  5880  902-22-32      -3   71   58  -0.310   0.170        0
  5881  902-26-278     -3   71   58  -0.310   0.170        0
  5882  902-36-336     -3   71   58  -0.310   0.170        0
  5883  902-42-356     -2   71   58  -0.310   0.170        0
  5884  902-48-337     -2   71   58  -0.310   0.170        0
  5885  902-61-54      -2   71   58  -0.310   0.170        0
  5886  916-1-365       1   70   58   0.390  -0.160        0
  5887  916-7-298       1   70   58   0.390  -0.160        0
  5888  916-11-258      1   70   58   0.390  -0.160        0
  5889  916-17-32       1   70   58   0.390  -0.160        0
  5890  916-22-34       1   70   58   0.390  -0.160        0
  5891  916-26-278      1   70   58   0.390  -0.160        0
  5892  916-36-336      1   70   58   0.390  -0.160        0
  5893  916-42-362      1   70   58   0.390  -0.160        0
  5894  916-48-335      1   70   58   0.390  -0.160        0
  5895  916-61-55       1   70   58   0.390  -0.160        0
  5896  917-42-362      2   70   58   0.390  -0.290        0
  5897  917-48-335      2   70   58   0.390  -0.290        0
  5898  905-1-365       1   71   58  -0.340  -0.320        0
  5899  910-42-362     -2   71   57  -0.500   0.190        0
  5900  897-1-365       2   71   57  -0.120   0.160        0
  5901  864-1-364       1   72   58   0.150   0.430        0
  5902  865-42-356     -2   72   58   0.150   0.400        0
  5903  865-48-335     -2   72   58   0.150   0.400        0
  5904  854-1-365       1   72   58   0.420   0.230        0
  5905  856-1-365       1   72   58   0.340  -0.350        0
  5906  851-22-34      -3   73   58  -0.320   0.010        0
  5907  851-26-278     -3   73   58  -0.320   0.010        0
  5908  851-37-342     -3   73   58  -0.320   0.010        0
  5909  851-48-337     -2   73   58  -0.320   0.010        0
  5910  851-61-54      -2   73   58  -0.320   0.010        0
  5911  843-1-365       1   73   58  -0.130   0.460        0
  5912  841-1-365       1   73   58   0.100   0.460        0
  5913  836-17-4        1   73   57   0.300  -0.130        0
  5914  823-1-365       1   74   57  -0.130   0.420        0
  5915  859-48-337      1   72   59   0.220   0.180        0
  5916  842-37-342     -2   73   59   0.070   0.110        0
  5917  842-42-356     -2   73   59   0.070   0.110        0
  5918  842-48-337     -2   73   59   0.070   0.110        0
  5919  842-61-54      -2   73   59   0.070   0.110        0
  5920  831-42-351     -2   74   59  -0.360  -0.310        0
  5921  831-48-337     -2   74   59  -0.360  -0.310        0
  5922  828-42-351     -3   74   59  -0.210   0.050        0
  5923  828-48-337     -3   74   59  -0.210   0.050        0
  5924  819-1-365       1   74   60   0.100  -0.300        0
  5925  1254-71-42      2   62   74   0.250  -0.260        0
  5926  1228-37-95      1   63   74   0.220   0.050        0
  5927  1228-42-356     1   63   74   0.220   0.050        0
  5928  1228-56-20      1   63   74   0.220   0.050        0
  5929  1228-66-25      1   63   74   0.220   0.050        0
  5930  1228-71-40      1   63   74   0.220   0.050        0
  5931  1199-48-344     2   64   74  -0.090   0.350        0
  5932  1199-56-20      2   64   74  -0.090   0.350        0
  5933  1199-61-60      2   64   74  -0.090   0.350        0
  5934  1199-66-25      2   64   74  -0.090   0.350        0
  5935  1199-71-40      2   64   74  -0.090   0.350        0
  5936  1243-42-362     2   63   70  -0.350  -0.340        0
  5937  1243-56-18      2   63   70  -0.350  -0.340        0
  5938  1243-61-60      2   63   70  -0.350  -0.340        0
  5939  1243-66-27      2   63   70  -0.350  -0.340        0
  5940  1243-71-56      2   63   70  -0.350  -0.340        0
  5941  1218-71-365    -3   63   64   0.350  -0.460        0
  5942  1204-42-356    -3   64   64  -0.200  -0.360        0
  5943  1204-56-17     -3   64   64  -0.200  -0.360        0
  5944  1204-66-26     -3   64   64  -0.200  -0.360        0
  5945  1204-71-365    -3   64   64  -0.200  -0.360        0
  5946  1131-71-365     2   66   63  -0.400  -0.140        0
  5947  1112-48-320     2   66   63   0.140  -0.010        0
  5948  1112-56-25      2   66   63   0.140  -0.010        0
  5949  1112-60-362     2   66   63   0.140  -0.010        0
  5950  1112-65-348     2   66   63   0.140  -0.010        0
  5951  1112-71-60      2   66   63   0.140  -0.010        0
  5952  1112-71-365     2   66   63   0.140  -0.010        0
  5953  1118-71-365     1   66   64  -0.010  -0.360        0
  5954  1111-71-362    -2   66   66   0.140   0.440        0
  5955  1169-71-362     1   65   67  -0.360   0.220        0
  5956  1100-48-348    -2   66   73   0.280  -0.080        0
  5957  1100-56-25     -2   66   73   0.280  -0.080        0
  5958  1100-61-56     -2   66   73   0.280  -0.080        0
  5959  1100-66-42     -2   66   73   0.280  -0.080        0
  5960  1100-71-365    -2   66   73   0.280  -0.080        0
  5961  1051-42-355    -2   67   73   0.160  -0.240        0
  5962  1051-48-365    -2   67   73   0.160  -0.240        0
  5963  1051-56-25     -2   67   73   0.160  -0.240        0
  5964  1051-61-42     -2   67   73   0.160  -0.240        0
  5965  1051-66-53     -2   67   73   0.160  -0.240        0
  5966  1051-71-365    -2   67   73   0.160  -0.240        0
  5967  1036-12-95      1   68   73  -0.490  -0.310        0
  5968  1036-26-349     1   68   73  -0.490  -0.310        0
  5969  1036-48-348     1   68   73  -0.490  -0.310        0
  5970  1036-56-25      1   68   73  -0.490  -0.310        0
  5971  1036-61-42      1   68   73  -0.490  -0.310        0
  5972  1036-66-53      1   68   73  -0.490  -0.310        0
  5973  1036-71-365     1   68   73  -0.490  -0.310        0
  5974  1025-56-27      1   68   72  -0.300  -0.380        0
  5975  1025-66-59      1   68   72  -0.300  -0.380        0
  5976  1054-66-59      1   67   71   0.210  -0.460        0
  5977  1055-65-348     1   67   70   0.170  -0.340        0
  5978  1001-56-18      1   68   70   0.160  -0.340        0
  5979  1001-65-348     1   68   70   0.160  -0.340        0
  5980  1027-56-18      1   68   70  -0.300   0.480        0
  5981  1086-71-55      1   66   66   0.480  -0.110        0
  5982  1099-26-349    -3   66   63   0.330  -0.340        0
  5983  1099-43-4      -3   66   63   0.330  -0.340        0
  5984  1099-48-362    -3   66   63   0.330  -0.340        0
  5985  1099-56-9      -3   66   63   0.330  -0.340        0
  5986  1042-48-355     2   67   63   0.480  -0.300        0
  5987  1042-56-25      2   67   63   0.480  -0.300        0
  5988  1042-60-362     2   67   63   0.480  -0.300        0
  5989  1042-65-348     2   67   63   0.480  -0.300        0
  5990  1042-71-365     2   67   63   0.480  -0.300        0
  5991  952-56-33       1   69   70   0.200  -0.330        0
  5992  952-65-348      1   69   70   0.200  -0.330        0
  5993  949-56-27       2   69   73   0.230  -0.400        0
  5994  993-56-27       1   68   71   0.280  -0.360        0
  5995  956-56-29       2   69   71   0.120  -0.160        0
  5996  886-71-355     -2   71   74   0.140   0.420        0
  5997  886-71-362     -2   71   74   0.140   0.420        0
  5998  913-42-355      1   70   73   0.420   0.440        0
  5999  913-48-334      1   70   73   0.420   0.440        0
  6000  913-56-18       1   70   73   0.420   0.440        0
  6001  913-61-53       1   70   73   0.420   0.440        0
  6002  913-66-32       1   70   73   0.420   0.440        0
  6003  874-71-61       2   72   73  -0.290  -0.240        0
  6004  933-48-338      1   70   69   0.040  -0.280        0
  6005  933-56-18       1   70   69   0.040  -0.280        0
  6006  933-61-53       1   70   69   0.040  -0.280        0
  6007  933-66-32       1   70   69   0.040  -0.280        0
  6008  887-26-285     -2   71   69   0.220  -0.310        0
  6009  887-31-335     -2   71   69   0.220  -0.310        0
  6010  887-37-1       -2   71   69   0.220  -0.310        0
  6011  887-42-357     -2   71   69   0.220  -0.310        0
  6012  877-42-352      1   72   69  -0.350  -0.310        0
  6013  877-48-338      1   72   69  -0.350  -0.310        0
  6014  877-61-53       1   72   69  -0.350  -0.310        0
  6015  877-66-32       1   72   69  -0.350  -0.310        0
  6016  919-42-357     -2   70   65   0.270   0.460        0
  6017  920-42-357     -2   70   65   0.270  -0.320        0
  6018  888-42-357      1   71   65   0.150   0.470        0
  6019  892-17-48      -2   71   65  -0.080  -0.350        0
  6020  892-22-37      -2   71   65  -0.080  -0.350        0
  6021  892-26-285     -2   71   65  -0.080  -0.350        0
  6022  892-31-335     -2   71   65  -0.080  -0.350        0
  6023  892-36-337     -2   71   65  -0.080  -0.350        0
  6024  878-36-335     -2   72   63  -0.310  -0.400        0
  6025  878-42-359     -2   72   63  -0.310  -0.400        0
  6026  878-71-365     -2   72   63  -0.310  -0.400        0
  6027  853-22-37       2   72   63   0.340  -0.300        0
  6028  853-26-336      2   72   63   0.340  -0.300        0
  6029  853-48-362      2   72   63   0.340  -0.300        0
  6030  853-56-9        2   72   63   0.340  -0.300        0
  6031  853-61-47       2   72   63   0.340  -0.300        0
  6032  853-65-357      2   72   63   0.340  -0.300        0
  6033  853-71-362      2   72   63   0.340  -0.300        0
  6034  844-43-4       -2   73   63  -0.090  -0.340        0
  6035  844-48-362     -2   73   63  -0.090  -0.340        0
  6036  844-56-9       -2   73   63  -0.090  -0.340        0
  6037  844-61-47      -2   73   63  -0.090  -0.340        0
  6038  844-65-357     -2   73   63  -0.090  -0.340        0
  6039  844-71-362     -2   73   63  -0.090  -0.340        0
  6040  834-16-364     -2   73   63   0.370  -0.340        0
  6041  834-26-280     -2   73   63   0.370  -0.340        0
  6042  834-43-4       -2   73   63   0.370  -0.340        0
  6043  834-56-20      -2   73   63   0.370  -0.340        0
  6044  834-60-306     -2   73   63   0.370  -0.340        0
  6045  834-65-357     -2   73   63   0.370  -0.340        0
  6046  834-71-362     -2   73   63   0.370  -0.340        0
  6047  835-65-357      1   73   63   0.290  -0.340        0
  6048  835-71-362      1   73   63   0.290  -0.340        0
  6049  815-1-365       1   74   63   0.140  -0.300        0
  6050  850-17-80       2   73   69  -0.440   0.020        0
  6051  850-22-37       2   73   69  -0.440   0.020        0
  6052  850-26-285      2   73   69  -0.440   0.020        0
  6053  850-31-335      2   73   69  -0.440   0.020        0
  6054  850-38-60       2   73   69  -0.440   0.020        0
  6055  850-42-352      2   73   69  -0.440   0.020        0
  6056  850-48-338      2   73   69  -0.440   0.020        0
  6057  850-60-320      2   73   69  -0.440   0.020        0
  6058  850-65-298      2   73   69  -0.440   0.020        0
  6059  850-71-365      2   73   69  -0.440   0.020        0
  6060  1259-66-59      2   62   84   0.290  -0.310        0
  6061  1236-66-59      2   63   84  -0.290   0.110        0
  6062  1260-66-59      2   62   84   0.290  -0.470        0
  6063  1244-66-59      2   63   84  -0.410  -0.470        0
  6064  1252-35-23      2   62   81   0.260  -0.310        0
  6065  1267-71-365     2   62   81   0.250  -0.140        0
  6066  1253-37-90      2   62   79   0.370   0.030        0
  6067  1253-42-355     2   62   79   0.370   0.030        0
  6068  1253-48-349     2   62   79   0.370   0.030        0
  6069  1253-56-11      2   62   79   0.370   0.030        0
  6070  1253-61-56      2   62   79   0.370   0.030        0
  6071  1253-66-59      2   62   79   0.370   0.030        0
  6072  1253-71-365     2   62   79   0.370   0.030        0
  6073  1245-37-90      2   62   77   0.220   0.280        0
  6074  1245-42-355     2   62   77   0.220   0.280        0
  6075  1245-48-349     2   62   77   0.220   0.280        0
  6076  1245-55-357     2   62   77   0.220   0.280        0
  6077  1245-61-12      2   62   77   0.220   0.280        0
  6078  1245-66-49      2   62   77   0.220   0.280        0
  6079  1245-71-365     2   62   77   0.220   0.280        0
  6080  1250-17-86     -2   62   75   0.260   0.090        0
  6081  1250-32-69     -2   62   75   0.260   0.090        0
  6082  1250-37-95     -2   62   75   0.260   0.090        0
  6083  1250-56-19      2   62   75   0.260   0.090        0
  6084  1250-61-60      2   62   75   0.260   0.090        0
  6085  1251-12-296    -2   62   75   0.380  -0.300        0
  6086  1251-17-86     -2   62   75   0.380  -0.300        0
  6087  1251-32-69     -2   62   75   0.380  -0.300        0
  6088  1251-37-95     -2   62   75   0.380  -0.300        0
  6089  1251-42-356    -2   62   75   0.380  -0.300        0
  6090  1251-48-334    -2   62   75   0.380  -0.300        0
  6091  1251-56-19     -2   62   75   0.380  -0.300        0
  6092  1251-60-321    -2   62   75   0.380  -0.300        0
  6093  1251-65-298    -2   62   75   0.380  -0.300        0
  6094  1251-71-365    -2   62   75   0.380  -0.300        0
  6095  1226-48-344     2   63   75   0.180   0.320        0
  6096  1226-56-19      2   63   75   0.180   0.320        0
  6097  1226-61-60      2   63   75   0.180   0.320        0
  6098  1226-66-25      2   63   75   0.180   0.320        0
  6099  1226-71-42      2   63   75   0.180   0.320        0
  6100  1195-12-297    -2   64   76  -0.170   0.110        0
  6101  1195-17-60     -2   64   76  -0.170   0.110        0
  6102  1195-32-69     -2   64   76  -0.170   0.110        0
  6103  1195-37-95     -2   64   76  -0.170   0.110        0
  6104  1195-48-344     2   64   76  -0.170   0.110        0
  6105  1195-56-19      2   64   76  -0.170   0.110        0
  6106  1195-66-25      2   64   76  -0.170   0.110        0
  6107  1128-70-357     2   66   75  -0.250   0.200        0
  6108  1128-71-365     2   66   75  -0.250   0.200        0
  6109  1110-17-78      1   66   76  -0.060   0.010        0
  6110  1110-32-70      1   66   76  -0.060   0.010        0
  6111  1110-37-1       1   66   76  -0.060   0.010        0
  6112  1137-16-357     2   65   78   0.400   0.000        0
  6113  1173-66-5       2   65   84  -0.460   0.080        0
  6114  1173-71-365     2   65   84  -0.460   0.080        0
  6115  1044-16-362     2   67   82   0.270  -0.350        0
  6116  1044-32-69      2   67   82   0.270  -0.350        0
  6117  1044-37-95      2   67   82   0.270  -0.350        0
  6118  1044-42-356     2   67   82   0.270  -0.350        0
  6119  1044-48-344     2   67   82   0.270  -0.350        0
  6120  1044-56-20      2   67   82   0.270  -0.350        0
  6121  1044-61-60      2   67   82   0.270  -0.350        0
  6122  1044-66-25      2   67   82   0.270  -0.350        0
  6123  1050-71-40      2   67   82   0.300  -0.390        0
  6124  1045-31-349     2   67   79   0.310  -0.350        0
  6125  1045-37-26      2   67   79   0.310  -0.350        0
  6126  1045-42-354     2   67   79   0.310  -0.350        0
  6127  1045-48-344     2   67   79   0.310  -0.350        0
  6128  1045-56-17      2   67   79   0.310  -0.350        0
  6129  1045-60-320     2   67   79   0.310  -0.350        0
  6130  1045-65-298     2   67   79   0.310  -0.350        0
  6131  1045-71-365     2   67   79   0.310  -0.350        0
  6132  1046-31-349     2   67   79   0.310  -0.350        0
  6133  1046-42-354     2   67   79   0.310  -0.350        0
  6134  1046-48-344     2   67   79   0.310  -0.350        0
  6135  1046-56-17      2   67   79   0.310  -0.350        0
  6136  1046-60-320     2   67   79   0.310  -0.350        0
  6137  1046-65-298     2   67   79   0.310  -0.350        0
  6138  1046-71-365     2   67   79   0.310  -0.350        0
  6139  1047-31-349     2   67   79   0.310  -0.350        0
  6140  1047-42-354     2   67   79   0.310  -0.350        0
  6141  1047-48-344     2   67   79   0.310  -0.350        0
  6142  1047-56-17      2   67   79   0.310  -0.350        0
  6143  1047-60-320     2   67   79   0.310  -0.350        0
  6144  1047-65-298     2   67   79   0.310  -0.350        0
  6145  1047-71-365     2   67   79   0.310  -0.350        0
  6146  1059-32-70      2   67   78  -0.150  -0.260        0
  6147  1059-56-19      2   67   78  -0.150  -0.260        0
  6148  1059-61-54      2   67   78  -0.150  -0.260        0
  6149  1059-66-32      2   67   78  -0.150  -0.260        0
  6150  1070-36-283    -2   67   75  -0.180   0.000        0
  6151  1017-17-78      2   69   76   0.110   0.110        0
  6152  1017-31-349     2   69   76   0.110   0.110        0
  6153  1017-37-26      2   69   76   0.110   0.110        0
  6154  1017-42-355     2   69   76   0.110   0.110        0
  6155  1004-71-365     2   68   77   0.120  -0.460        0
  6156  988-2-60        1   68   76   0.420  -0.470        0
  6157  979-42-355     -2   69   75  -0.420   0.010        0
  6158  979-48-334     -2   69   75  -0.420   0.010        0
  6159  979-56-18      -2   69   75  -0.420   0.010        0
  6160  979-61-53      -2   69   75  -0.420   0.010        0
  6161  961-7-85        1   69   75  -0.150  -0.220        0
  6162  961-12-60       1   69   75  -0.150  -0.220        0
  6163  961-16-362      1   69   75  -0.150  -0.220        0
  6164  955-61-53       1   69   75   0.110  -0.220        0
  6165  955-66-31       1   69   75   0.110  -0.220        0
  6166  925-71-365      2   70   76   0.180  -0.370        0
  6167  940-71-365     -2   70   76  -0.470   0.340        0
  6168  945-71-365      2   70   76  -0.430   0.340        0
  6169  959-66-49       2   69   80  -0.120   0.280        0
  6170  959-71-365      2   69   80  -0.120   0.280        0
  6171  922-61-42       2   70   80   0.220  -0.110        0
  6172  922-66-54       2   70   80   0.220  -0.110        0
  6173  922-71-365      2   70   80   0.220  -0.110        0
  6174  978-66-59       2   69   83  -0.430  -0.410        0
  6175  978-71-365      2   69   83  -0.430  -0.410        0
  6176  977-56-17       2   69   85  -0.480  -0.130        0
  6177  977-61-53       2   69   85  -0.480  -0.130        0
  6178  977-66-32       2   69   85  -0.480  -0.130        0
  6179  973-32-70       2   69   85  -0.400   0.040        0
  6180  973-38-60       2   69   85  -0.400   0.040        0
  6181  973-56-17       2   69   85  -0.400   0.040        0
  6182  973-61-53       2   69   85  -0.400   0.040        0
  6183  954-42-354      2   69   85   0.130   0.130        0
  6184  954-48-335      2   69   85   0.130   0.130        0
  6185  870-12-60       3   72   86  -0.190  -0.340        0
  6186  870-17-78       3   72   86  -0.190  -0.340        0
  6187  870-22-89       3   72   86  -0.190  -0.340        0
  6188  870-32-70       3   72   86  -0.190  -0.340        0
  6189  870-37-1        3   72   86  -0.190  -0.340        0
  6190  870-42-354      3   72   86  -0.190  -0.340        0
  6191  869-7-171       2   72   86  -0.190  -0.340        0
  6192  869-42-354      2   72   86  -0.190  -0.340        0
  6193  869-56-18       2   72   86  -0.190  -0.340        0
  6194  869-60-320      2   72   86  -0.190  -0.340        0
  6195  869-65-299      2   72   86  -0.190  -0.340        0
  6196  869-71-365      2   72   86  -0.190  -0.340        0
  6197  915-66-53       2   70   84   0.360  -0.200        0
  6198  915-71-365      2   70   84   0.360  -0.200        0
  6199  912-66-41       2   70   82   0.400   0.170        0
  6200  912-71-365      2   70   82   0.400   0.170        0
  6201  875-2-86        2   72   82  -0.330  -0.150        0
  6202  879-61-53       2   72   82  -0.370   0.080        0
  6203  879-66-46       2   72   82  -0.370   0.080        0
  6204  879-71-365      2   72   82  -0.370   0.080        0
  6205  881-2-87        2   71   80   0.440   0.480        0
  6206  891-48-334      1   71   77   0.020  -0.330        0
  6207  891-56-18       1   71   77   0.020  -0.330        0
  6208  891-61-62       1   71   77   0.020  -0.330        0
  6209  891-66-32       1   71   77   0.020  -0.330        0
  6210  891-71-64       1   71   77   0.020  -0.330        0
  6211  876-42-355     -2   72   78  -0.370   0.170        0
  6212  876-48-334     -2   72   78  -0.370   0.170        0
  6213  876-56-19      -2   72   78  -0.370   0.170        0
  6214  876-61-62      -2   72   78  -0.370   0.170        0
  6215  876-66-32      -2   72   78  -0.370   0.170        0
  6216  866-66-32       2   72   78   0.020  -0.090        0
  6217  866-71-64       2   72   78   0.020  -0.090        0
  6218  873-33-328      2   72   78  -0.290   0.200        0
  6219  918-42-355     -2   70   76   0.340   0.440        0
  6220  906-37-28      -3   71   77  -0.430  -0.460        0
  6221  923-42-355      1   70   75   0.220  -0.020        0
  6222  923-48-334      1   70   75   0.220  -0.020        0
  6223  923-56-18       1   70   75   0.220  -0.020        0
  6224  849-42-356      1   73   75  -0.400  -0.050        0
  6225  849-56-18       1   73   75  -0.400  -0.050        0
  6226  3417-32-69     -2   74   85  -0.010   0.310        0
  6227  3417-35-23     -2   74   85  -0.010   0.310        0
  6228  3417-42-354    -2   74   85  -0.010   0.310        0
  6229  3417-48-335    -2   74   85  -0.010   0.310        0
  6230  3417-56-17     -2   74   85  -0.010   0.310        0
  6231  3417-61-53     -2   74   85  -0.010   0.310        0
  6232  1921-16-362     3   62   88   0.350   0.020        0
  6233  1229-36-319     2   63   87   0.080   0.010        0
  6234  1202-42-362     2   64   88  -0.150  -0.370        0
  6235  1202-48-336     2   64   88  -0.150  -0.370        0
  6236  1164-2-93       2   65   88  -0.310   0.380        0
  6237  1164-16-300     2   65   88  -0.310   0.380        0
  6238  1164-27-12      2   65   88  -0.310   0.380        0
  6239  1164-48-336     2   65   88  -0.310   0.380        0
  6240  1164-56-17      2   65   88  -0.310   0.380        0
  6241  1164-61-60      2   65   88  -0.310   0.380        0
  6242  1125-71-356     2   66   90  -0.240  -0.120        0
  6243  1123-71-53      2   66   90  -0.210  -0.120        0
  6244  1543-2-90       2   67   92   0.280  -0.060        0
  6245  1543-56-19      2   67   92   0.280  -0.060        0
  6246  1543-66-26      2   67   92   0.280  -0.060        0
  6247  1084-48-338     2   67   91  -0.440   0.060        0
  6248  1067-71-63      2   67   90  -0.100   0.140        0
  6249  1066-71-63      2   67   90  -0.100   0.210        0
  6250  1544-2-88       2   67   91   0.130  -0.430        0
  6251  1544-12-324     2   67   91   0.130  -0.430        0
  6252  1593-61-60      2   67   89  -0.400  -0.090        0
  6253  1593-66-26      2   67   89  -0.400  -0.090        0
  6254  1069-71-365     2   67   88  -0.210  -0.230        0
  6255  1052-56-17      2   67   88   0.210   0.350        0
  6256  1052-66-26      2   67   88   0.210   0.350        0
  6257  989-66-20       2   68   89   0.480  -0.410        0
  6258  966-22-60       2   69   88  -0.260   0.060        0
  6259  987-12-324      2   68   92   0.310   0.260        0
  6260  987-22-33       2   68   92   0.310   0.260        0
  6261  987-27-12       2   68   92   0.310   0.260        0
  6262  987-66-20       2   68   92   0.310   0.260        0
  6263  858-71-63       2   72   92   0.230   0.000        0
  6264  890-42-362     -2   71   91   0.000  -0.490        0
  6265  890-48-338     -2   71   91   0.000  -0.490        0
  6266  890-56-19      -2   71   91   0.000  -0.490        0
  6267  890-61-60      -2   71   91   0.000  -0.490        0
  6268  890-66-20      -2   71   91   0.000  -0.490        0
  6269  908-71-365      2   71   89  -0.500   0.140        0
  6270  667-17-5        2   82   14  -0.360   0.260        0
  6271  667-22-1        2   82   14  -0.360   0.260        0
  6272  667-27-14       2   82   14  -0.360   0.260        0
  6273  667-31-350      2   82   14  -0.360   0.260        0
  6274  667-37-340      2   82   14  -0.360   0.260        0
  6275  667-42-351      2   82   14  -0.360   0.260        0
  6276  667-48-348      2   82   14  -0.360   0.260        0
  6277  652-27-14       3   82   14   0.290   0.190        0
  6278  652-56-17       3   82   14   0.290   0.190        0
  6279  652-66-20       3   82   14   0.290   0.190        0
  6280  614-27-14       2   84   13  -0.300   0.040        0
  6281  613-56-17       2   84   13  -0.110   0.140        0
  6282  641-1-260       1   83   11  -0.380  -0.370        0
  6283  641-26-1        2   83   11  -0.380  -0.370        0
  6284  641-56-18       2   83   11  -0.380  -0.370        0
  6285  641-66-31       2   83   11  -0.380  -0.370        0
  6286  793-6-289      -2   75   20  -0.120  -0.210        0
  6287  793-48-348     -2   75   20  -0.120  -0.210        0
  6288  793-61-25      -2   75   20  -0.120  -0.210        0
  6289  793-65-357     -2   75   20  -0.120  -0.210        0
  6290  793-71-365     -2   75   20  -0.120  -0.210        0
  6291  762-56-18       2   76   21  -0.160  -0.400        0
  6292  762-61-61       2   76   21  -0.160  -0.400        0
  6293  762-66-34       2   76   21  -0.160  -0.400        0
  6294  758-48-348     -2   76   19   0.220  -0.260        0
  6295  758-55-353     -2   76   19   0.220  -0.260        0
  6296  758-61-25      -2   76   19   0.220  -0.260        0
  6297  758-65-362     -2   76   19   0.220  -0.260        0
  6298  758-71-365     -2   76   19   0.220  -0.260        0
  6299  766-10-104      2   76   16  -0.130   0.460        0
  6300  773-36-156      3   76   16  -0.440   0.430        0
  6301  722-8-276       2   78   17   0.200  -0.290        0
  6302  722-12-360      2   78   17   0.200  -0.290        0
  6303  722-22-3        2   78   17   0.200  -0.290        0
  6304  741-65-362      2   77   17  -0.020   0.300        0
  6305  741-71-365      2   77   17  -0.020   0.300        0
  6306  738-65-362      2   77   17   0.090   0.040        0
  6307  738-71-365      2   77   17   0.090   0.040        0
  6308  743-65-362      2   77   18  -0.100  -0.470        0
  6309  743-71-365      2   77   18  -0.100  -0.470        0
  6310  740-65-362      2   77   17   0.060   0.430        0
  6311  740-71-365      2   77   17   0.060   0.430        0
  6312  737-22-3        2   77   18   0.210  -0.240        0
  6313  737-48-348      2   77   18   0.210  -0.240        0
  6314  737-61-25       2   77   18   0.210  -0.240        0
  6315  737-65-362      2   77   18   0.210  -0.240        0
  6316  737-71-365      2   77   18   0.210  -0.240        0
  6317  723-12-180      2   78   23   0.220  -0.320        0
  6318  723-17-9        2   78   23   0.220  -0.320        0
  6319  723-22-1        2   78   23   0.220  -0.320        0
  6320  723-32-85       2   78   23   0.220  -0.320        0
  6321  748-61-61       2   77   26  -0.190   0.330        0
  6322  748-66-33       2   77   26  -0.190   0.330        0
  6323  714-56-19       2   79   26  -0.160   0.260        0
  6324  714-61-61       2   79   26  -0.160   0.260        0
  6325  715-56-17       2   78   15   0.350  -0.110        0
  6326  715-61-62       2   78   15   0.350  -0.110        0
  6327  715-66-35       2   78   15   0.350  -0.110        0
  6328  713-56-17       2   79   15  -0.270   0.110        0
  6329  713-66-35       2   79   15  -0.270   0.110        0
  6330  702-65-362      3   80   16  -0.500   0.090        0
  6331  702-71-365      3   80   16  -0.500   0.090        0
  6332  700-36-164      2   80   16  -0.310  -0.040        0
  6333  700-55-353      2   80   16  -0.310  -0.040        0
  6334  700-61-25       2   80   16  -0.310  -0.040        0
  6335  700-65-362      2   80   16  -0.310  -0.040        0
  6336  700-71-365      2   80   16  -0.310  -0.040        0
  6337  671-27-14       2   81   15   0.370   0.370        0
  6338  671-55-353      2   81   15   0.370   0.370        0
  6339  671-61-25       2   81   15   0.370   0.370        0
  6340  656-12-178      2   82   15  -0.130   0.040        0
  6341  656-56-17       2   82   15  -0.130   0.040        0
  6342  656-66-20       2   82   15  -0.130   0.040        0
  6343  656-71-365      2   82   15  -0.130   0.040        0
  6344  655-26-362      2   82   24   0.280   0.170        0
  6345  655-32-85       2   82   24   0.280   0.170        0
  6346  655-35-53       2   82   24   0.280   0.170        0
  6347  655-56-18       2   82   24   0.280   0.170        0
  6348  689-66-33       2   80   26   0.330  -0.430        0
  6349  688-71-365      2   80   25   0.370   0.340        0
  6350  682-56-18       2   81   25  -0.130  -0.110        0
  6351  636-56-18       2   83   19  -0.350  -0.250        0
  6352  636-61-62       2   83   19  -0.350  -0.250        0
  6353  636-66-20       2   83   19  -0.350  -0.250        0
  6354  648-71-365      3   82   18   0.380   0.170        0
  6355  601-48-348      2   84   19   0.250  -0.250        0
  6356  601-55-353      2   84   19   0.250  -0.250        0
  6357  601-61-34       2   84   19   0.250  -0.250        0
  6358  601-65-362      2   84   19   0.250  -0.250        0
  6359  601-71-365      2   84   19   0.250  -0.250        0
  6360  632-56-17       2   84   15  -0.290  -0.230        0
  6361  632-66-20       2   84   15  -0.290  -0.230        0
  6362  602-22-1        2   84   16   0.060   0.400        0
  6363  579-56-18       2   85   16  -0.370  -0.290        0
  6364  598-42-351      3   85   22  -0.430  -0.420        0
  6365  598-48-348      3   85   22  -0.430  -0.420        0
  6366  598-56-18       3   85   22  -0.430  -0.420        0
  6367  598-60-323      3   85   22  -0.430  -0.420        0
  6368  598-65-300      3   85   22  -0.430  -0.420        0
  6369  598-71-365      3   85   22  -0.430  -0.420        0
  6370  739-37-15       2   77   29   0.320   0.160        0
  6371  739-48-341      2   77   29   0.320   0.160        0
  6372  739-55-353      2   77   29   0.320   0.160        0
  6373  739-61-34       2   77   29   0.320   0.160        0
  6374  739-65-362      2   77   29   0.320   0.160        0
  6375  739-71-365      2   77   29   0.320   0.160        0
  6376  720-12-152      2   79   29  -0.460  -0.420        0
  6377  720-17-9        2   79   29  -0.460  -0.420        0
  6378  720-21-364      2   79   29  -0.460  -0.420        0
  6379  720-66-34       2   79   29  -0.460  -0.420        0
  6380  747-48-341      2   77   32   0.440  -0.030        0
  6381  747-55-346      2   77   32   0.440  -0.030        0
  6382  747-61-34       2   77   32   0.440  -0.030        0
  6383  747-65-362      2   77   32   0.440  -0.030        0
  6384  747-71-365      2   77   32   0.440  -0.030        0
  6385  717-27-13       2   79   60  -0.350   0.480        0
  6386  644-42-343      3   83   61  -0.480  -0.480        0
  6387  625-42-343     -2   84   61  -0.490  -0.480        0
  6388  620-42-343      3   84   60  -0.410  -0.490        0
  6389  634-35-29       3   83   56   0.320   0.440        0
  6390  634-42-322      3   83   56   0.320   0.440        0
  6391  554-42-350      3   85   56   0.460  -0.020        0
  6392  561-42-349      3   85   55   0.350   0.460        0
  6393  535-42-350      3   86   56   0.230  -0.410        0
  6394  577-22-34       3   85   58  -0.260   0.170        0
  6395  577-27-59       3   85   58  -0.260   0.170        0
  6396  577-31-339      3   85   58  -0.260   0.170        0
  6397  577-37-1        3   85   58  -0.260   0.170        0
  6398  577-42-343      3   85   58  -0.260   0.170        0
  6399  577-48-343      3   85   58  -0.260   0.170        0
  6400  577-56-16       3   85   58  -0.260   0.170        0
  6401  577-60-322      3   85   58  -0.260   0.170        0
  6402  577-65-302      3   85   58  -0.260   0.170        0
  6403  577-71-365      3   85   58  -0.260   0.170        0
  6404  581-1-365       2   85   60  -0.380   0.450        0
  6405  582-42-343     -2   85   61  -0.420  -0.480        0
  6406  582-56-16      -2   85   61  -0.420  -0.480        0
  6407  586-27-56      -2   85   60  -0.420  -0.300        0
  6408  586-37-316     -2   85   60  -0.420  -0.300        0
  6409  586-42-343     -2   85   60  -0.420  -0.300        0
  6410  586-56-16      -2   85   60  -0.420  -0.300        0
  6411  586-61-55      -2   85   60  -0.420  -0.300        0
  6412  586-66-46      -2   85   60  -0.420  -0.300        0
  6413  553-22-39      -2   85   60   0.460   0.090        0
  6414  553-26-299     -2   85   60   0.460   0.090        0
  6415  553-31-348     -2   85   60   0.460   0.090        0
  6416  553-36-21      -2   85   60   0.460   0.090        0
  6417  584-22-44       3   85   60  -0.420   0.420        0
  6418  584-27-56       3   85   60  -0.420   0.420        0
  6419  584-31-339      3   85   60  -0.420   0.420        0
  6420  584-37-1        3   85   60  -0.420   0.420        0
  6421  584-42-343      3   85   60  -0.420   0.420        0
  6422  584-56-16       3   85   60  -0.420   0.420        0
  6423  584-61-55       3   85   60  -0.420   0.420        0
  6424  584-66-46       3   85   60  -0.420   0.420        0
  6425  585-22-44       3   85   59  -0.420  -0.370        0
  6426  585-27-56       3   85   59  -0.420  -0.370        0
  6427  585-31-339      3   85   59  -0.420  -0.370        0
  6428  585-37-1        3   85   59  -0.420  -0.370        0
  6429  585-42-343      3   85   59  -0.420  -0.370        0
  6430  585-56-16       3   85   59  -0.420  -0.370        0
  6431  585-61-55       3   85   59  -0.420  -0.370        0
  6432  585-66-46       3   85   59  -0.420  -0.370        0
  6433  557-38-1       -2   85   60   0.420  -0.400        0
  6434  557-42-343     -2   85   60   0.420  -0.400        0
  6435  557-66-46      -2   85   60   0.420  -0.400        0
  6436  548-1-365       2   86   60  -0.230   0.420        0
  6437  575-17-55       3   85   62  -0.230   0.080        0
  6438  575-22-44       3   85   62  -0.230   0.080        0
  6439  575-26-299      3   85   62  -0.230   0.080        0
  6440  563-17-55      -2   85   62   0.310  -0.110        0
  6441  563-22-44      -2   85   62   0.310  -0.110        0
  6442  563-66-46      -2   85   62   0.310  -0.110        0
  6443  556-26-299      3   85   62   0.420  -0.240        0
  6444  556-31-335      3   85   62   0.420  -0.240        0
  6445  556-36-317      3   85   62   0.420  -0.240        0
  6446  556-56-10       3   85   62   0.420  -0.240        0
  6447  556-61-56       3   85   62   0.420  -0.240        0
  6448  556-66-34       3   85   62   0.420  -0.240        0
  6449  558-26-299     -2   85   62   0.390   0.470        0
  6450  558-31-317     -2   85   62   0.390   0.470        0
  6451  558-38-319     -2   85   62   0.390   0.470        0
  6452  572-1-365       2   85   61  -0.030  -0.220        0
  6453  543-1-365       1   86   61  -0.080  -0.220        0
  6454  529-48-336     -2   86   63   0.500  -0.490        0
  6455  529-56-10      -2   86   63   0.500  -0.490        0
  6456  529-61-56      -2   86   63   0.500  -0.490        0
  6457  529-66-34      -2   86   63   0.500  -0.490        0
  6458  798-1-365       1   75   62  -0.330  -0.120        0
  6459  794-1-77        1   75   61  -0.140  -0.090        0
  6460  772-3-59        1   76   62  -0.370   0.340        0
  6461  792-1-365       2   75   59  -0.060  -0.080        0
  6462  790-1-274       2   75   59  -0.440  -0.020        0
  6463  790-6-286       2   75   59  -0.440  -0.020        0
  6464  790-11-258      2   75   59  -0.440  -0.020        0
  6465  790-17-4        2   75   59  -0.440  -0.020        0
  6466  790-22-34       2   75   59  -0.440  -0.020        0
  6467  790-27-53       2   75   59  -0.440  -0.020        0
  6468  790-31-335      2   75   59  -0.440  -0.020        0
  6469  790-37-32       2   75   59  -0.440  -0.020        0
  6470  790-42-351      2   75   59  -0.440  -0.020        0
  6471  790-48-337      2   75   59  -0.440  -0.020        0
  6472  790-61-54       2   75   59  -0.440  -0.020        0
  6473  783-1-274       2   75   59   0.360   0.080        0
  6474  783-6-288       2   75   59   0.360   0.080        0
  6475  783-11-258      2   75   59   0.360   0.080        0
  6476  783-17-4        2   75   59   0.360   0.080        0
  6477  783-17-47       2   75   59   0.360   0.080        0
  6478  783-22-34       2   75   59   0.360   0.080        0
  6479  783-26-280      2   75   59   0.360   0.080        0
  6480  783-31-335      2   75   59   0.360   0.080        0
  6481  783-42-351      2   75   59   0.360   0.080        0
  6482  783-61-54       2   75   59   0.360   0.080        0
  6483  799-1-365       1   75   58  -0.330   0.360        0
  6484  774-65-357      1   75   64   0.470   0.200        0
  6485  774-71-362      1   75   64   0.470   0.200        0
  6486  751-1-365       1   77   64  -0.340  -0.360        0
  6487  746-22-38      -2   77   63  -0.340   0.220        0
  6488  746-26-280     -2   77   63  -0.340   0.220        0
  6489  746-32-41      -2   77   63  -0.340   0.220        0
  6490  746-48-362     -2   77   63  -0.340   0.220        0
  6491  746-56-9       -2   77   63  -0.340   0.220        0
  6492  746-61-47      -2   77   63  -0.340   0.220        0
  6493  746-65-357     -2   77   63  -0.340   0.220        0
  6494  746-71-362     -2   77   63  -0.340   0.220        0
  6495  745-1-55        1   77   63  -0.110   0.420        0
  6496  754-48-342      2   76   63   0.470  -0.070        0
  6497  754-56-18       2   76   63   0.470  -0.070        0
  6498  754-61-53       2   76   63   0.470  -0.070        0
  6499  754-66-32       2   76   63   0.470  -0.070        0
  6500  721-12-313      2   78   63   0.420   0.060        0
  6501  721-17-52       2   78   63   0.420   0.060        0
  6502  721-22-38       2   78   63   0.420   0.060        0
  6503  721-26-287      2   78   63   0.420   0.060        0
  6504  721-31-335      2   78   63   0.420   0.060        0
  6505  721-36-318      2   78   63   0.420   0.060        0
  6506  721-42-350      2   78   63   0.420   0.060        0
  6507  721-48-343      2   78   63   0.420   0.060        0
  6508  721-56-19       2   78   63   0.420   0.060        0
  6509  721-61-55       2   78   63   0.420   0.060        0
  6510  721-66-46       2   78   63   0.420   0.060        0
  6511  729-43-4       -2   78   64   0.080  -0.360        0
  6512  729-48-362     -2   78   64   0.080  -0.360        0
  6513  729-56-9       -2   78   64   0.080  -0.360        0
  6514  729-66-1       -2   78   64   0.080  -0.360        0
  6515  729-71-362     -2   78   64   0.080  -0.360        0
  6516  706-17-52      -2   79   65   0.380  -0.480        0
  6517  706-22-37      -2   79   65   0.380  -0.480        0
  6518  706-27-62      -2   79   65   0.380  -0.480        0
  6519  706-31-335     -2   79   65   0.380  -0.480        0
  6520  706-43-4       -2   79   65   0.380  -0.480        0
  6521  706-48-362     -2   79   65   0.380  -0.480        0
  6522  706-56-9       -2   79   65   0.380  -0.480        0
  6523  706-61-47      -2   79   65   0.380  -0.480        0
  6524  706-65-357     -2   79   65   0.380  -0.480        0
  6525  706-71-362     -2   79   65   0.380  -0.480        0
  6526  694-17-52       1   80   66  -0.050   0.380        0
  6527  694-22-38       1   80   66  -0.050   0.380        0
  6528  694-26-285      1   80   66  -0.050   0.380        0
  6529  694-31-344      1   80   66  -0.050   0.380        0
  6530  694-36-354      1   80   66  -0.050   0.380        0
  6531  694-43-4        1   80   66  -0.050   0.380        0
  6532  694-48-362      1   80   66  -0.050   0.380        0
  6533  694-56-9        1   80   66  -0.050   0.380        0
  6534  694-61-47       1   80   66  -0.050   0.380        0
  6535  694-65-357      1   80   66  -0.050   0.380        0
  6536  694-71-362      1   80   66  -0.050   0.380        0
  6537  716-1-365       1   79   64  -0.350   0.070        0
  6538  719-12-121     -2   79   63  -0.430  -0.140        0
  6539  708-8-302      -2   79   63   0.380   0.190        0
  6540  708-12-64      -2   79   63   0.380   0.190        0
  6541  708-17-3       -2   79   63   0.380   0.190        0
  6542  708-22-38      -2   79   63   0.380   0.190        0
  6543  708-26-287     -2   79   63   0.380   0.190        0
  6544  708-31-335     -2   79   63   0.380   0.190        0
  6545  708-42-350     -2   79   63   0.380   0.190        0
  6546  708-48-343     -2   79   63   0.380   0.190        0
  6547  685-1-365       1   81   64  -0.280   0.260        0
  6548  674-22-38      -2   81   64   0.410  -0.220        0
  6549  674-31-344     -2   81   64   0.410  -0.220        0
  6550  674-42-350     -2   81   64   0.410  -0.220        0
  6551  674-48-343     -2   81   64   0.410  -0.220        0
  6552  674-56-19      -2   81   64   0.410  -0.220        0
  6553  674-61-60      -2   81   64   0.410  -0.220        0
  6554  674-66-48      -2   81   64   0.410  -0.220        0
  6555  676-27-10      -2   81   64   0.290   0.400        0
  6556  687-17-3       -2   81   63  -0.440  -0.140        0
  6557  687-22-38      -2   81   63  -0.440  -0.140        0
  6558  687-27-11      -2   81   63  -0.440  -0.140        0
  6559  687-42-350     -2   81   63  -0.440  -0.140        0
  6560  687-48-343     -2   81   63  -0.440  -0.140        0
  6561  687-56-19      -2   81   63  -0.440  -0.140        0
  6562  687-61-55      -2   81   63  -0.440  -0.140        0
  6563  687-66-46      -2   81   63  -0.440  -0.140        0
  6564  686-56-19      -3   81   63  -0.400  -0.140        0
  6565  686-66-46      -3   81   63  -0.400  -0.140        0
  6566  677-17-53       2   81   63   0.140  -0.430        0
  6567  677-22-38       2   81   63   0.140  -0.430        0
  6568  677-26-299      2   81   63   0.140  -0.430        0
  6569  677-31-337      2   81   63   0.140  -0.430        0
  6570  677-37-336      2   81   63   0.140  -0.430        0
  6571  677-42-350      2   81   63   0.140  -0.430        0
  6572  677-48-343      2   81   63   0.140  -0.430        0
  6573  677-56-19       2   81   63   0.140  -0.430        0
  6574  677-61-55       2   81   63   0.140  -0.430        0
  6575  677-66-46       2   81   63   0.140  -0.430        0
  6576  675-5-102       1   81   63   0.410  -0.100        0
  6577  675-11-305      1   81   63   0.410  -0.100        0
  6578  675-27-11       1   81   63   0.410  -0.100        0
  6579  665-17-53       1   82   63  -0.130  -0.040        0
  6580  665-22-38       1   82   63  -0.130  -0.040        0
  6581  665-27-11       1   82   63  -0.130  -0.040        0
  6582  665-36-357      1   82   63  -0.130  -0.040        0
  6583  665-42-350      1   82   63  -0.130  -0.040        0
  6584  665-56-19       1   82   63  -0.130  -0.040        0
  6585  665-61-55       1   82   63  -0.130  -0.040        0
  6586  665-66-46       1   82   63  -0.130  -0.040        0
  6587  657-48-343      1   82   63   0.170  -0.200        0
  6588  649-3-294       2   82   63   0.440  -0.040        0
  6589  649-6-290       2   82   63   0.440  -0.040        0
  6590  649-11-307      2   82   63   0.440  -0.040        0
  6591  649-17-3        2   82   63   0.440  -0.040        0
  6592  649-22-38       2   82   63   0.440  -0.040        0
  6593  649-26-287      2   82   63   0.440  -0.040        0
  6594  649-31-335      2   82   63   0.440  -0.040        0
  6595  649-38-60       2   82   63   0.440  -0.040        0
  6596  649-42-350      2   82   63   0.440  -0.040        0
  6597  649-48-343      2   82   63   0.440  -0.040        0
  6598  649-56-19       2   82   63   0.440  -0.040        0
  6599  649-61-55       2   82   63   0.440  -0.040        0
  6600  651-3-294       1   82   64   0.440  -0.420        0
  6601  651-6-290       1   82   64   0.440  -0.420        0
  6602  651-11-307      1   82   64   0.440  -0.420        0
  6603  651-17-52       1   82   64   0.440  -0.420        0
  6604  651-27-11       1   82   64   0.440  -0.420        0
  6605  651-42-350      1   82   64   0.440  -0.420        0
  6606  651-48-343      1   82   64   0.440  -0.420        0
  6607  651-56-19       1   82   64   0.440  -0.420        0
  6608  651-61-60       1   82   64   0.440  -0.420        0
  6609  651-66-46       1   82   64   0.440  -0.420        0
  6610  679-17-52      -2   81   66   0.020  -0.500        0
  6611  679-22-37      -2   81   66   0.020  -0.500        0
  6612  679-26-336     -2   81   66   0.020  -0.500        0
  6613  679-48-362     -2   81   66   0.020  -0.500        0
  6614  679-56-9       -2   81   66   0.020  -0.500        0
  6615  679-61-47      -2   81   66   0.020  -0.500        0
  6616  679-65-357     -2   81   66   0.020  -0.500        0
  6617  679-71-362     -2   81   66   0.020  -0.500        0
  6618  680-17-52      -2   81   66  -0.020   0.380        0
  6619  680-22-82      -2   81   66  -0.020   0.380        0
  6620  680-27-62      -2   81   66  -0.020   0.380        0
  6621  680-31-335     -2   81   66  -0.020   0.380        0
  6622  680-39-60      -2   81   66  -0.020   0.380        0
  6623  680-43-4       -2   81   66  -0.020   0.380        0
  6624  680-48-362     -2   81   66  -0.020   0.380        0
  6625  680-56-9       -2   81   66  -0.020   0.380        0
  6626  680-61-47      -2   81   66  -0.020   0.380        0
  6627  680-65-357     -2   81   66  -0.020   0.380        0
  6628  680-71-362     -2   81   66  -0.020   0.380        0
  6629  684-17-52      -2   81   65  -0.280  -0.440        0
  6630  684-22-37      -2   81   65  -0.280  -0.440        0
  6631  684-26-349     -2   81   65  -0.280  -0.440        0
  6632  684-31-335     -2   81   65  -0.280  -0.440        0
  6633  684-48-362     -2   81   65  -0.280  -0.440        0
  6634  684-56-9       -2   81   65  -0.280  -0.440        0
  6635  684-66-1       -2   81   65  -0.280  -0.440        0
  6636  684-71-362     -2   81   65  -0.280  -0.440        0
  6637  664-1-365       1   82   65  -0.140  -0.380        0
  6638  654-12-67      -2   82   65   0.320  -0.310        0
  6639  654-17-52      -2   82   65   0.320  -0.310        0
  6640  654-22-37      -2   82   65   0.320  -0.310        0
  6641  654-26-285     -2   82   65   0.320  -0.310        0
  6642  654-31-335     -2   82   65   0.320  -0.310        0
  6643  654-38-32      -2   82   65   0.320  -0.310        0
  6644  654-42-349     -2   82   65   0.320  -0.310        0
  6645  654-48-343     -2   82   65   0.320  -0.310        0
  6646  654-56-19      -2   82   65   0.320  -0.310        0
  6647  654-61-60      -2   82   65   0.320  -0.310        0
  6648  654-66-49      -2   82   65   0.320  -0.310        0
  6649  658-32-41       2   82   67   0.130  -0.420        0
  6650  658-36-357      2   82   67   0.130  -0.420        0
  6651  658-43-4        2   82   67   0.130  -0.420        0
  6652  658-48-362      2   82   67   0.130  -0.420        0
  6653  658-56-9        2   82   67   0.130  -0.420        0
  6654  658-61-47       2   82   67   0.130  -0.420        0
  6655  658-65-357      2   82   67   0.130  -0.420        0
  6656  658-71-362      2   82   67   0.130  -0.420        0
  6657  673-35-360     -2   81   67   0.440   0.490        0
  6658  673-56-9       -2   81   67   0.440   0.490        0
  6659  673-61-47      -2   81   67   0.440   0.490        0
  6660  673-65-357     -2   81   67   0.440   0.490        0
  6661  673-70-334     -2   81   67   0.440   0.490        0
  6662  673-71-362     -2   81   67   0.440   0.490        0
  6663  653-32-41      -2   82   68   0.320  -0.050        0
  6664  653-39-32      -2   82   68   0.320  -0.050        0
  6665  653-43-4       -2   82   68   0.320  -0.050        0
  6666  653-48-362     -2   82   68   0.320  -0.050        0
  6667  653-56-9       -2   82   68   0.320  -0.050        0
  6668  653-61-47      -2   82   68   0.320  -0.050        0
  6669  653-65-357     -2   82   68   0.320  -0.050        0
  6670  653-71-362     -2   82   68   0.320  -0.050        0
  6671  642-36-352      2   83   74  -0.420   0.470        0
  6672  642-43-4        2   83   74  -0.420   0.470        0
  6673  642-48-362      2   83   74  -0.420   0.470        0
  6674  642-56-9        2   83   74  -0.420   0.470        0
  6675  642-61-47       2   83   74  -0.420   0.470        0
  6676  642-65-357      2   83   74  -0.420   0.470        0
  6677  642-71-362      2   83   74  -0.420   0.470        0
  6678  637-26-295     -2   82   73   0.470  -0.390        0
  6679  637-31-349     -2   82   73   0.470  -0.390        0
  6680  637-36-352     -2   82   73   0.470  -0.390        0
  6681  637-43-4       -2   82   73   0.470  -0.390        0
  6682  637-48-362     -2   82   73   0.470  -0.390        0
  6683  637-56-9       -2   82   73   0.470  -0.390        0
  6684  637-61-47      -2   82   73   0.470  -0.390        0
  6685  637-65-357     -2   82   73   0.470  -0.390        0
  6686  637-71-362     -2   82   73   0.470  -0.390        0
  6687  624-7-99        1   84   73  -0.460  -0.130        0
  6688  624-12-103      1   84   73  -0.460  -0.130        0
  6689  624-17-52       1   84   73  -0.460  -0.130        0
  6690  624-22-39       1   84   73  -0.460  -0.130        0
  6691  624-27-5        1   84   73  -0.460  -0.130        0
  6692  624-32-1        1   84   73  -0.460  -0.130        0
  6693  595-37-32      -3   84   73   0.380  -0.160        0
  6694  595-43-4       -3   84   73   0.380  -0.160        0
  6695  595-48-362     -3   84   73   0.380  -0.160        0
  6696  595-56-9       -3   84   73   0.380  -0.160        0
  6697  595-61-47      -2   84   73   0.380  -0.160        0
  6698  595-65-357     -3   84   73   0.380  -0.160        0
  6699  595-71-362     -3   84   73   0.380  -0.160        0
  6700  604-31-323     -2   84   74   0.270   0.210        0
  6701  604-37-32      -2   84   74   0.270   0.210        0
  6702  604-43-4       -2   84   74   0.270   0.210        0
  6703  604-48-362     -2   84   74   0.270   0.210        0
  6704  604-56-9       -2   84   74   0.270   0.210        0
  6705  604-61-47      -2   84   74   0.270   0.210        0
  6706  604-65-357     -2   84   74   0.270   0.210        0
  6707  604-71-362     -2   84   74   0.270   0.210        0
  6708  596-36-352     -2   84   71   0.390  -0.470        0
  6709  596-43-4       -2   84   71   0.390  -0.470        0
  6710  596-48-362     -2   84   71   0.390  -0.470        0
  6711  596-56-9       -2   84   71   0.390  -0.470        0
  6712  596-61-47      -2   84   71   0.390  -0.470        0
  6713  596-65-357     -2   84   71   0.390  -0.470        0
  6714  596-71-362     -2   84   71   0.390  -0.470        0
  6715  609-43-4       -2   84   67   0.040  -0.390        0
  6716  609-56-9       -2   84   67   0.040  -0.390        0
  6717  609-61-47      -2   84   67   0.040  -0.390        0
  6718  609-65-357     -2   84   67   0.040  -0.390        0
  6719  609-71-362     -2   84   67   0.040  -0.390        0
  6720  639-27-10       1   83   65  -0.100   0.470        0
  6721  639-66-49       1   83   65  -0.100   0.470        0
  6722  626-27-10       1   83   66   0.470  -0.330        0
  6723  626-42-349      1   83   66   0.470  -0.330        0
  6724  626-48-343      1   83   66   0.470  -0.330        0
  6725  626-56-19       1   83   66   0.470  -0.330        0
  6726  626-61-60       1   83   66   0.470  -0.330        0
  6727  626-66-49       1   83   66   0.470  -0.330        0
  6728  635-17-52       1   83   66   0.090   0.320        0
  6729  635-22-38       1   83   66   0.090   0.320        0
  6730  635-26-280      1   83   66   0.090   0.320        0
  6731  635-42-349      1   83   66   0.090   0.320        0
  6732  635-48-343      1   83   66   0.090   0.320        0
  6733  635-56-19       1   83   66   0.090   0.320        0
  6734  635-61-60       1   83   66   0.090   0.320        0
  6735  635-66-49       1   83   66   0.090   0.320        0
  6736  629-11-307      1   83   64   0.400   0.460        0
  6737  629-16-364      1   83   64   0.400   0.460        0
  6738  629-21-332      1   83   64   0.400   0.460        0
  6739  629-26-287      1   83   64   0.400   0.460        0
  6740  629-31-335      1   83   64   0.400   0.460        0
  6741  629-37-32       1   83   64   0.400   0.460        0
  6742  629-48-343      1   83   64   0.400   0.460        0
  6743  629-56-23       1   83   64   0.400   0.460        0
  6744  629-61-60       1   83   64   0.400   0.460        0
  6745  629-66-46       1   83   64   0.400   0.460        0
  6746  628-11-307      2   83   65   0.390   0.110        0
  6747  628-17-52       2   83   65   0.390   0.110        0
  6748  628-36-356      2   83   65   0.390   0.110        0
  6749  628-42-349      2   83   65   0.390   0.110        0
  6750  628-48-343      2   83   65   0.390   0.110        0
  6751  628-56-19       2   83   65   0.390   0.110        0
  6752  628-61-60       2   83   65   0.390   0.110        0
  6753  628-66-46       2   83   65   0.390   0.110        0
  6754  630-12-310     -2   83   64   0.400  -0.420        0
  6755  630-17-3       -2   83   64   0.400  -0.420        0
  6756  630-22-38      -2   83   64   0.400  -0.420        0
  6757  630-27-11      -2   83   64   0.400  -0.420        0
  6758  630-36-357     -2   83   64   0.400  -0.420        0
  6759  630-42-350     -2   83   64   0.400  -0.420        0
  6760  630-48-343     -2   83   64   0.400  -0.420        0
  6761  630-56-19      -2   83   64   0.400  -0.420        0
  6762  630-61-60      -2   83   64   0.400  -0.420        0
  6763  630-66-46      -2   83   64   0.400  -0.420        0
  6764  631-17-3       -2   84   63  -0.490  -0.460        0
  6765  631-22-32      -2   84   63  -0.490  -0.460        0
  6766  631-26-289     -2   84   63  -0.490  -0.460        0
  6767  631-31-335     -2   84   63  -0.490  -0.460        0
  6768  631-33-335     -2   84   63  -0.490  -0.460        0
  6769  631-42-350      2   84   63  -0.490  -0.460        0
  6770  631-48-343      2   84   63  -0.490  -0.460        0
  6771  631-56-19       2   84   63  -0.490  -0.460        0
  6772  631-61-55       2   84   63  -0.490  -0.460        0
  6773  631-66-46       2   84   63  -0.490  -0.460        0
  6774  593-27-11       2   84   63   0.430  -0.400        0
  6775  593-61-55       2   84   63   0.430  -0.400        0
  6776  593-66-46       2   84   63   0.430  -0.400        0
  6777  592-1-365       2   84   63   0.430  -0.140        0
  6778  587-7-101      -3   85   63  -0.490  -0.070        0
  6779  587-11-307     -3   85   63  -0.490  -0.070        0
  6780  587-17-53      -3   85   63  -0.490  -0.070        0
  6781  587-26-287     -3   85   63  -0.490  -0.070        0
  6782  587-31-335     -3   85   63  -0.490  -0.070        0
  6783  587-38-60      -2   85   63  -0.490  -0.070        0
  6784  587-42-350     -2   85   63  -0.490  -0.070        0
  6785  587-48-343     -2   85   63  -0.490  -0.070        0
  6786  587-56-19      -2   85   63  -0.490  -0.070        0
  6787  587-61-55       3   85   63  -0.490  -0.070        0
  6788  587-66-46       3   85   63  -0.490  -0.070        0
  6789  591-11-333      2   84   63   0.430   0.130        0
  6790  591-17-53       2   84   63   0.430   0.130        0
  6791  591-42-350      2   84   63   0.430   0.130        0
  6792  597-6-79        2   84   64   0.390  -0.420        0
  6793  597-11-307      2   84   64   0.390  -0.420        0
  6794  597-17-53       2   84   64   0.390  -0.420        0
  6795  597-26-287      2   84   64   0.390  -0.420        0
  6796  597-42-350      2   84   64   0.390  -0.420        0
  6797  597-48-343      2   84   64   0.390  -0.420        0
  6798  597-56-19       2   84   64   0.390  -0.420        0
  6799  597-61-60       2   84   64   0.390  -0.420        0
  6800  597-66-46       2   84   64   0.390  -0.420        0
  6801  607-42-349      1   84   64   0.120   0.430        0
  6802  607-48-343      1   84   64   0.120   0.430        0
  6803  607-56-23       1   84   64   0.120   0.430        0
  6804  607-61-60       1   84   64   0.120   0.430        0
  6805  607-66-46       1   84   64   0.120   0.430        0
  6806  568-48-343     -2   85   64   0.040   0.360        0
  6807  568-56-10      -2   85   64   0.040   0.360        0
  6808  568-61-61      -2   85   64   0.040   0.360        0
  6809  560-1-358      -2   85   64   0.270  -0.030        0
  6810  560-6-340      -2   85   64   0.270  -0.030        0
  6811  560-10-349     -2   85   64   0.270  -0.030        0
  6812  545-38-6       -3   86   63  -0.420  -0.270        0
  6813  545-42-356     -3   86   63  -0.420  -0.270        0
  6814  538-1-365      -2   86   63   0.110   0.390        0
  6815  517-7-49        2   86   63   0.150  -0.130        0
  6816  574-56-24       2   85   66  -0.150  -0.200        0
  6817  574-61-61       2   85   66  -0.150  -0.200        0
  6818  574-66-33       2   85   66  -0.150  -0.200        0
  6819  580-1-365       1   85   66  -0.340  -0.170        0
  6820  555-8-357       1   85   65   0.420   0.470        0
  6821  555-12-67       1   85   65   0.420   0.470        0
  6822  555-27-10       1   85   65   0.420   0.470        0
  6823  555-31-335      1   85   65   0.420   0.470        0
  6824  555-38-60       1   85   65   0.420   0.470        0
  6825  555-56-24       1   85   65   0.420   0.470        0
  6826  555-61-60       1   85   65   0.420   0.470        0
  6827  555-66-33       1   85   65   0.420   0.470        0
  6828  547-1-365       1   86   65  -0.230   0.280        0
  6829  546-27-10       2   86   65  -0.160   0.080        0
  6830  539-56-10       2   86   65   0.070   0.340        0
  6831  539-61-60       2   86   65   0.070   0.340        0
  6832  539-66-33       2   86   65   0.070   0.340        0
  6833  573-48-362      2   85   68   0.340  -0.370        0
  6834  573-56-9        2   85   68   0.340  -0.370        0
  6835  573-71-362      2   85   68   0.340  -0.370        0
  6836  808-48-335      1   74   73   0.280   0.250        0
  6837  808-66-33       1   74   73   0.280   0.250        0
  6838  808-71-61       1   74   73   0.280   0.250        0
  6839  807-26-349      2   74   67   0.330   0.420        0
  6840  807-43-4        2   74   67   0.330   0.420        0
  6841  807-48-341      2   74   67   0.330   0.420        0
  6842  805-56-9        1   74   67   0.360   0.450        0
  6843  807-56-9        2   74   67   0.330   0.420        0
  6844  807-61-47       2   74   67   0.330   0.420        0
  6845  805-65-357      1   74   67   0.360   0.450        0
  6846  807-65-357      2   74   67   0.330   0.420        0
  6847  805-71-362      1   74   67   0.360   0.450        0
  6848  807-71-362      2   74   67   0.330   0.420        0
  6849  810-43-4        2   74   63   0.250  -0.200        0
  6850  810-48-362      2   74   63   0.250  -0.200        0
  6851  810-61-47       2   74   63   0.250  -0.200        0
  6852  810-65-357      2   74   63   0.250  -0.200        0
  6853  810-71-362      2   74   63   0.250  -0.200        0
  6854  767-48-335      1   76   73  -0.190  -0.490        0
  6855  761-31-335      1   76   65  -0.260   0.080        0
  6856  761-37-320      1   76   65  -0.260   0.080        0
  6857  761-42-355      1   76   65  -0.260   0.080        0
  6858  761-48-342      1   76   65  -0.260   0.080        0
  6859  761-56-18       1   76   65  -0.260   0.080        0
  6860  761-61-54       1   76   65  -0.260   0.080        0
  6861  761-66-33       1   76   65  -0.260   0.080        0
  6862  763-42-355      1   76   66   0.090   0.090        0
  6863  763-48-342      1   76   66   0.090   0.090        0
  6864  763-56-18       1   76   66   0.090   0.090        0
  6865  763-61-56       1   76   66   0.090   0.090        0
  6866  763-66-33       1   76   66   0.090   0.090        0
  6867  802-56-9        2   75   64  -0.480  -0.230        0
  6868  802-61-47       2   75   64  -0.480  -0.230        0
  6869  802-65-357      2   75   64  -0.480  -0.230        0
  6870  802-71-362      2   75   64  -0.480  -0.230        0
  6871  781-61-54       1   75   63   0.400   0.380        0
  6872  781-66-33       1   75   63   0.400   0.380        0
  6873  775-56-27       1   75   63   0.440   0.380        0
  6874  775-61-54       1   75   63   0.440   0.380        0
  6875  775-66-33       1   75   63   0.440   0.380        0
  6876  786-66-33       2   75   63   0.320   0.380        0
  6877  782-26-336      2   75   63   0.440  -0.110        0
  6878  782-31-335      2   75   63   0.440  -0.110        0
  6879  782-43-4        2   75   63   0.440  -0.110        0
  6880  782-48-362      2   75   63   0.440  -0.110        0
  6881  782-56-9        2   75   63   0.440  -0.110        0
  6882  782-61-47       2   75   63   0.440  -0.110        0
  6883  782-65-357      2   75   63   0.440  -0.110        0
  6884  782-71-362      2   75   63   0.440  -0.110        0
  6885  755-27-12       1   76   63   0.430  -0.070        0
  6886  755-31-348      1   76   63   0.430  -0.070        0
  6887  755-37-26       1   76   63   0.430  -0.070        0
  6888  755-42-357      1   76   63   0.430  -0.070        0
  6889  755-48-342      1   76   63   0.430  -0.070        0
  6890  755-56-18       1   76   63   0.430  -0.070        0
  6891  755-60-320      1   76   63   0.430  -0.070        0
  6892  755-65-298      1   76   63   0.430  -0.070        0
  6893  755-71-365      1   76   63   0.430  -0.070        0
  6894  776-42-354     -2   75   86   0.290  -0.360        0
  6895  776-48-335     -2   75   86   0.290  -0.360        0
  6896  776-56-17      -2   75   86   0.290  -0.360        0
  6897  776-61-53      -2   75   86   0.290  -0.360        0
  6898  785-32-62       2   75   80   0.460   0.260        0
  6899  785-37-32       2   75   80   0.460   0.260        0
  6900  785-48-334      2   75   80   0.460   0.260        0
  6901  785-56-19       2   75   80   0.460   0.260        0
  6902  785-66-33       2   75   80   0.460   0.260        0
  6903  784-32-62       2   75   80   0.490   0.360        0
  6904  784-66-33       2   75   80   0.490   0.360        0
  6905  777-32-6        1   75   77   0.270  -0.450        0
  6906  777-37-32       1   75   77   0.270  -0.450        0
  6907  777-42-355      1   75   77   0.270  -0.450        0
  6908  777-48-334      1   75   77   0.270  -0.450        0
  6909  777-56-18       1   75   77   0.270  -0.450        0
  6910  778-42-355      2   75   77   0.270  -0.450        0
  6911  778-48-334      2   75   77   0.270  -0.450        0
  6912  778-56-18       2   75   77   0.270  -0.450        0
  6913  778-60-321      2   75   77   0.270  -0.450        0
  6914  778-65-299      2   75   77   0.270  -0.450        0
  6915  778-71-365      2   75   77   0.270  -0.450        0
  6916  779-42-355      2   75   77   0.270  -0.450        0
  6917  779-48-334      2   75   77   0.270  -0.450        0
  6918  779-56-18       2   75   77   0.270  -0.450        0
  6919  779-60-321      2   75   77   0.270  -0.450        0
  6920  779-65-299      2   75   77   0.270  -0.450        0
  6921  779-71-365      2   75   77   0.270  -0.450        0
  6922  801-36-310      2   74   75   0.390  -0.350        0
  6923  797-65-356      2   75   75  -0.340  -0.280        0
  6924  797-71-362      2   75   75  -0.340  -0.280        0
  6925  768-42-355      1   76   75  -0.230  -0.440        0
  6926  768-48-335      1   76   75  -0.230  -0.440        0
  6927  732-36-316     -3   78   77  -0.160  -0.390        0
  6928  765-32-6        2   76   79   0.030  -0.430        0
  6929  765-42-355      2   76   79   0.030  -0.430        0
  6930  765-48-348      2   76   79   0.030  -0.430        0
  6931  765-56-11       2   76   79   0.030  -0.430        0
  6932  765-61-48       2   76   79   0.030  -0.430        0
  6933  765-65-356      2   76   79   0.030  -0.430        0
  6934  765-71-362      2   76   79   0.030  -0.430        0
  6935  718-37-32      -2   79   84  -0.450  -0.470        0
  6936  718-48-334     -2   79   84  -0.450  -0.470        0
  6937  718-56-16      -2   79   84  -0.450  -0.470        0
  6938  718-61-53      -2   79   84  -0.450  -0.470        0
  6939  718-66-32      -2   79   84  -0.450  -0.470        0
  6940  718-71-60      -2   79   84  -0.450  -0.470        0
  6941  728-7-85        1   78   76   0.260   0.000        0
  6942  728-12-124      1   78   76   0.260   0.000        0
  6943  728-17-78       1   78   76   0.260   0.000        0
  6944  728-27-5        1   78   76   0.260   0.000        0
  6945  728-32-6        1   78   76   0.260   0.000        0
  6946  728-37-32       1   78   76   0.260   0.000        0
  6947  728-42-355      1   78   76   0.260   0.000        0
  6948  728-48-334      1   78   76   0.260   0.000        0
  6949  728-56-18       1   78   76   0.260   0.000        0
  6950  681-7-358       2   81   81  -0.070  -0.370        0
  6951  681-12-103      2   81   81  -0.070  -0.370        0
  6952  681-17-78       2   81   81  -0.070  -0.370        0
  6953  681-32-61       2   81   81  -0.070  -0.370        0
  6954  681-37-32       2   81   81  -0.070  -0.370        0
  6955  662-71-365      3   82   84  -0.080   0.280        0
  6956  616-42-355      2   84   81  -0.130  -0.330        0
  6957  616-56-16       2   84   81  -0.130  -0.330        0
  6958  825-71-62       2   74   92  -0.230  -0.090        0
  6959  608-32-62      -2   84   82   0.020   0.400        0
  6960  608-48-348     -2   84   82   0.020   0.400        0
  6961  608-56-11      -2   84   82   0.020   0.400        0
  6962  608-61-41      -2   84   82   0.020   0.400        0
  6963  608-65-355     -2   84   82   0.020   0.400        0
  6964  608-71-365     -2   84   82   0.020   0.400        0
  6965  559-8-73        2   85   85   0.320   0.460        0
  6966  559-12-60       2   85   85   0.320   0.460        0
  6967  559-17-78       2   85   85   0.320   0.460        0
  6968  559-32-62       2   85   85   0.320   0.460        0
  6969  559-36-335      2   85   85   0.320   0.460        0
  6970  806-71-62       2   74   92   0.280  -0.030        0
  6971  771-43-68       3   76   92  -0.420  -0.200        0
  6972  764-43-68       3   76   90   0.010   0.040        0
  6973  764-48-342      3   76   90   0.010   0.040        0
  6974  764-56-17       3   76   90   0.010   0.040        0
  6975  764-61-60       3   76   90   0.010   0.040        0
  6976  764-66-19       3   76   90   0.010   0.040        0
  6977  764-71-63       3   76   90   0.010   0.040        0
  6978  731-32-61       3   78   92  -0.160  -0.130        0
  6979  731-42-355      3   78   92  -0.160  -0.130        0
  6980  730-48-342      3   78   92  -0.010  -0.100        0
  6981  730-56-17       3   78   92  -0.010  -0.100        0
  6982  730-60-320      3   78   92  -0.010  -0.100        0
  6983  730-71-365      3   78   92  -0.040  -0.060        0
  6984  725-48-343      3   78   92   0.190  -0.200        0
  6985  725-56-16       3   78   92   0.190  -0.200        0
  6986  725-61-59       3   78   92   0.190  -0.200        0
  6987  725-66-19       3   78   92   0.190  -0.200        0
  6988  725-71-63       3   78   92   0.190  -0.200        0
  6989  683-7-360       3   81   91  -0.250   0.160        0
  6990  683-12-102      3   81   91  -0.250   0.160        0
  6991  683-17-78       3   81   91  -0.250   0.160        0
  6992  683-32-61       3   81   91  -0.250   0.160        0
  6993  683-37-32       3   81   91  -0.250   0.160        0
  6994  683-48-342      3   81   91  -0.250   0.160        0
  6995  528-56-10      -3   86   63   0.500  -0.460        0
  6996  528-61-56      -3   86   63   0.500  -0.460        0
  6997  528-66-34      -3   86   63   0.500  -0.460        0
  6998  532-56-10       2   86   62   0.420  -0.050        0
  6999  532-61-56       2   86   62   0.420  -0.050        0
  7000  523-42-363      3   86   62   0.500  -0.280        0
  7001  523-48-343      3   86   62   0.500  -0.280        0
  7002  523-56-10       3   86   62   0.500  -0.280        0
  7003  523-61-56       3   86   62   0.500  -0.280        0
  7004  506-31-282      3   87   62   0.450  -0.280        0
  7005  506-56-10       3   87   62   0.450  -0.280        0
  7006  506-60-321      3   87   62   0.450  -0.280        0
  7007  516-56-10      -2   87   61   0.030   0.070        0
  7008  516-61-56      -2   87   61   0.030   0.070        0
  7009  507-17-55      -3   87   61   0.450   0.100        0
  7010  507-22-40      -3   87   61   0.450   0.100        0
  7011  507-26-299     -3   87   61   0.450   0.100        0
  7012  507-31-335     -2   87   61   0.450   0.100        0
  7013  507-48-343     -2   87   61   0.450   0.100        0
  7014  507-56-10      -2   87   61   0.450   0.100        0
  7015  496-17-55       2   88   61   0.370   0.100        0
  7016  496-22-40       2   88   61   0.370   0.100        0
  7017  496-31-335      2   88   61   0.370   0.100        0
  7018  492-56-10       3   88   61   0.410   0.400        0
  7019  492-61-60       3   88   61   0.410   0.400        0
  7020  492-66-31       3   88   61   0.410   0.400        0
  7021  466-56-10       3   90   61  -0.060  -0.380        0
  7022  466-61-60       3   90   61  -0.060  -0.380        0
  7023  466-66-34       3   90   61  -0.060  -0.380        0
  7024  462-56-10       3   90   60   0.090   0.160        0
  7025  462-61-60       3   90   60   0.090   0.160        0
  7026  462-66-34       3   90   60   0.090   0.160        0
  7027  476-56-10       3   89   62   0.400  -0.010        0
  7028  476-61-60       3   89   62   0.400  -0.010        0
  7029  465-56-10      -2   90   61  -0.060  -0.350        0
  7030  465-61-60      -2   90   61  -0.060  -0.350        0
  7031  465-66-34      -2   90   61  -0.060  -0.350        0
  7032  460-1-365       1   90   62   0.280   0.280        0
  7033  458-38-7        3   91   62  -0.490  -0.440        0
  7034  458-48-336      3   91   62  -0.490  -0.440        0
  7035  458-56-10       3   91   62  -0.490  -0.440        0
  7036  458-61-60       3   91   62  -0.490  -0.440        0
  7037  458-66-54       3   91   62  -0.490  -0.440        0
  7038  458-71-34       3   91   62  -0.490  -0.440        0
  7039  440-38-6       -2   91   62   0.130   0.020        0
  7040  440-42-356     -2   91   62   0.130   0.020        0
  7041  440-48-337     -2   91   62   0.130   0.020        0
  7042  443-1-365       1   91   61  -0.100   0.430        0
  7043  439-1-358       1   91   61   0.280   0.300        0
  7044  439-4-350       1   91   61   0.280   0.300        0
  7045  449-10-89       2   91   60  -0.330   0.390        0
  7046  418-48-342      3   93   56   0.040  -0.210        0
  7047  418-56-18       3   93   56   0.040  -0.210        0
  7048  415-48-342      3   93   57   0.310  -0.490        0
  7049  415-56-18       3   93   57   0.310  -0.490        0
  7050  421-34-313      3   93   58  -0.380   0.400        0
  7051  421-48-343      3   93   58  -0.380   0.400        0
  7052  421-56-12       3   93   58  -0.380   0.400        0
  7053  421-61-60       3   93   58  -0.380   0.400        0
  7054  417-34-60       3   93   58   0.080  -0.220        0
  7055  412-6-290      -2   93   62   0.460  -0.440        0
  7056  412-10-297     -2   93   62   0.460  -0.440        0
  7057  412-17-4       -2   93   62   0.460  -0.440        0
  7058  412-27-12      -2   93   62   0.460  -0.440        0
  7059  412-38-6        2   93   62   0.460  -0.440        0
  7060  412-42-356      2   93   62   0.460  -0.440        0
  7061  412-48-336      2   93   62   0.460  -0.440        0
  7062  411-48-336     -2   93   62   0.500  -0.270        0
  7063  411-56-11      -2   93   62   0.500  -0.270        0
  7064  411-61-60      -2   93   62   0.500  -0.270        0
  7065  411-66-54      -2   93   62   0.500  -0.270        0
  7066  411-71-33      -2   93   62   0.500  -0.270        0
  7067  405-38-6       -2   94   62  -0.010   0.280        0
  7068  405-42-355     -2   94   62  -0.010   0.280        0
  7069  405-48-334     -2   94   62  -0.010   0.280        0
  7070  405-56-11      -2   94   62  -0.010   0.280        0
  7071  405-61-60      -2   94   62  -0.010   0.280        0
  7072  405-66-54      -2   94   62  -0.010   0.280        0
  7073  405-71-33       3   94   62  -0.010   0.280        0
  7074  396-17-4       -3   95   62  -0.350  -0.240        0
  7075  396-27-12      -3   95   62  -0.350  -0.240        0
  7076  396-38-6       -2   95   62  -0.350  -0.240        0
  7077  396-42-355     -2   95   62  -0.350  -0.240        0
  7078  396-48-336     -2   95   62  -0.350  -0.240        0
  7079  393-1-358       1   95   62  -0.090  -0.270        0
  7080  398-38-6       -2   94   61   0.490   0.200        0
  7081  398-42-356     -2   94   61   0.490   0.200        0
  7082  387-42-356      3   95   61   0.410  -0.420        0
  7083  387-48-336      3   95   61   0.410  -0.420        0
  7084  387-56-11       3   95   61   0.410  -0.420        0
  7085  387-61-60       3   95   61   0.410  -0.420        0
  7086  387-66-54       3   95   61   0.410  -0.420        0
  7087  387-71-33       3   95   61   0.410  -0.420        0
  7088  386-17-4        2   95   61   0.450   0.470        0
  7089  386-27-12       2   95   61   0.450   0.470        0
  7090  386-48-336      2   95   61   0.450   0.470        0
  7091  381-38-6       -2   96   61  -0.470   0.070        0
  7092  381-42-356     -2   96   61  -0.470   0.070        0
  7093  381-48-336     -2   96   61  -0.470   0.070        0
  7094  361-26-295      3   96   61   0.440  -0.060        0
  7095  361-43-14       3   96   61   0.440  -0.060        0
  7096  361-56-12       3   96   61   0.440  -0.060        0
  7097  361-61-60       3   96   61   0.440  -0.060        0
  7098  361-66-31       3   96   61   0.440  -0.060        0
  7099  365-1-365       1   96   61   0.410   0.430        0
  7100  364-42-356      3   96   62   0.410   0.020        0
  7101  363-1-365       1   96   62   0.410   0.480        0
  7102  391-56-12      -2   95   59   0.070  -0.370        0
  7103  391-61-60      -2   95   59   0.070  -0.370        0
  7104  372-43-14       3   96   59  -0.050   0.440        0
  7105  372-56-12       3   96   59  -0.050   0.440        0
  7106  372-61-60       3   96   59  -0.050   0.440        0
  7107  375-56-19       3   96   58  -0.210  -0.480        0
  7108  358-56-19       3   97   58  -0.330  -0.450        0
  7109  350-56-19       3   98   58  -0.480  -0.450        0
  7110  343-56-19       3   98   58   0.130  -0.450        0
  7111  345-43-6        3   98   58  -0.030  -0.030        0
  7112  356-56-12       3   97   60  -0.020  -0.130        0
  7113  356-61-60       3   97   60  -0.020  -0.130        0
  7114  352-17-4        2   97   60   0.360  -0.040        0
  7115  352-22-51       2   97   60   0.360  -0.040        0
  7116  352-27-14       2   97   60   0.360  -0.040        0
  7117  342-37-342      3   98   60   0.400  -0.260        0
  7118  342-43-14       3   98   60   0.400  -0.260        0
  7119  349-27-13       1   98   63  -0.410  -0.460        0
  7120  348-56-11      -2   98   63  -0.370  -0.460        0
  7121  348-61-54      -2   98   63  -0.370  -0.460        0
  7122  348-66-35      -2   98   63  -0.370  -0.460        0
  7123  351-3-56       -2   97   61   0.400  -0.250        0
  7124  351-22-46      -2   97   61   0.400  -0.250        0
  7125  351-27-62      -2   97   61   0.400  -0.250        0
  7126  351-37-342      2   97   61   0.400  -0.250        0
  7127  351-43-14       2   97   61   0.400  -0.250        0
  7128  351-48-337      2   97   61   0.400  -0.250        0
  7129  351-56-11       2   97   61   0.400  -0.250        0
  7130  351-61-54       2   97   61   0.400  -0.250        0
  7131  351-66-35       2   97   61   0.400  -0.250        0
  7132  346-17-4        1   98   61  -0.140  -0.380        0
  7133  346-27-14       1   98   61  -0.140  -0.380        0
  7134  347-11-304     -2   98   61  -0.220  -0.320        0
  7135  347-17-59      -2   98   61  -0.220  -0.320        0
  7136  347-22-46      -2   98   61  -0.220  -0.320        0
  7137  347-27-14      -2   98   61  -0.220  -0.320        0
  7138  347-31-335     -2   98   61  -0.220  -0.320        0
  7139  347-56-11       2   98   61  -0.220  -0.320        0
  7140  347-61-54       2   98   61  -0.220  -0.320        0
  7141  347-66-35       2   98   61  -0.220  -0.320        0
  7142  341-17-4        2   98   62   0.430   0.120        0
  7143  524-37-354      3   87   73  -0.480   0.500        0
  7144  524-43-4        3   87   73  -0.480   0.500        0
  7145  524-48-335      3   87   73  -0.480   0.500        0
  7146  524-56-9        3   87   73  -0.480   0.500        0
  7147  524-61-47       3   87   73  -0.480   0.500        0
  7148  524-65-357      3   87   73  -0.480   0.500        0
  7149  524-71-362      3   87   73  -0.480   0.500        0
  7150  3418-43-4      -2   87   71  -0.470   0.470        0
  7151  3418-48-362    -2   87   71  -0.470   0.470        0
  7152  3418-56-9      -2   87   71  -0.470   0.470        0
  7153  3418-65-357    -2   87   71  -0.470   0.470        0
  7154  3418-71-362    -2   87   71  -0.470   0.470        0
  7155  525-35-347      2   87   69  -0.470   0.450        0
  7156  525-56-9        2   87   69  -0.470   0.450        0
  7157  525-71-362      2   87   69  -0.470   0.450        0
  7158  514-31-335     -2   87   68   0.070  -0.140        0
  7159  514-36-360     -2   87   68   0.070  -0.140        0
  7160  514-43-4       -2   87   68   0.070  -0.140        0
  7161  514-48-362     -2   87   68   0.070  -0.140        0
  7162  514-56-9       -2   87   68   0.070  -0.140        0
  7163  514-61-47      -2   87   68   0.070  -0.140        0
  7164  514-65-357     -2   87   68   0.070  -0.140        0
  7165  514-71-362     -2   87   68   0.070  -0.140        0
  7166  513-32-41      -2   87   67   0.140  -0.320        0
  7167  513-39-60      -2   87   67   0.140  -0.320        0
  7168  513-43-4       -2   87   67   0.140  -0.320        0
  7169  513-48-362     -2   87   67   0.140  -0.320        0
  7170  513-56-9       -2   87   67   0.140  -0.320        0
  7171  513-61-47      -2   87   67   0.140  -0.320        0
  7172  513-65-357     -2   87   67   0.140  -0.320        0
  7173  513-71-362     -2   87   67   0.140  -0.320        0
  7174  526-11-307      1   87   66  -0.390  -0.200        0
  7175  526-17-53       1   87   66  -0.390  -0.200        0
  7176  526-22-38       1   87   66  -0.390  -0.200        0
  7177  487-17-4       -2   89   65  -0.480   0.380        0
  7178  487-27-10      -2   89   65  -0.480   0.380        0
  7179  487-38-6       -2   89   65  -0.480   0.380        0
  7180  487-42-356     -2   89   65  -0.480   0.380        0
  7181  494-42-355     -2   88   65   0.180   0.440        0
  7182  494-48-334     -2   88   65   0.180   0.440        0
  7183  494-56-10      -2   88   65   0.180   0.440        0
  7184  494-61-60      -2   88   65   0.180   0.440        0
  7185  494-66-49      -2   88   65   0.180   0.440        0
  7186  494-71-33      -2   88   65   0.180   0.440        0
  7187  530-38-6       -2   86   64   0.490  -0.030        0
  7188  530-48-334     -2   86   64   0.490  -0.030        0
  7189  530-56-10      -2   86   64   0.490  -0.030        0
  7190  530-61-60      -2   86   64   0.490  -0.030        0
  7191  530-66-49      -2   86   64   0.490  -0.030        0
  7192  530-71-33      -2   86   64   0.490  -0.030        0
  7193  509-38-6       -2   87   64   0.490  -0.030        0
  7194  509-42-355     -2   87   64   0.490  -0.030        0
  7195  509-48-334     -2   87   64   0.490  -0.030        0
  7196  509-56-10      -2   87   64   0.490  -0.030        0
  7197  509-61-60      -2   87   64   0.490  -0.030        0
  7198  509-66-49      -2   87   64   0.490  -0.030        0
  7199  509-71-33      -2   87   64   0.490  -0.030        0
  7200  518-17-3        2   87   63  -0.080  -0.400        0
  7201  518-27-11       2   87   63  -0.080  -0.400        0
  7202  518-42-355      2   87   63  -0.080  -0.400        0
  7203  510-1-358       1   87   63   0.380   0.350        0
  7204  495-1-358       2   88   63   0.370  -0.430        0
  7205  491-7-49        2   88   64   0.410  -0.160        0
  7206  490-7-49        1   88   64   0.480   0.370        0
  7207  490-17-4        1   88   64   0.480   0.370        0
  7208  490-27-10       1   88   64   0.480   0.370        0
  7209  481-38-7       -3   89   64   0.020  -0.020        0
  7210  481-42-355     -3   89   64   0.020  -0.020        0
  7211  481-48-334     -3   89   64   0.020  -0.020        0
  7212  481-56-10      -3   89   64   0.020  -0.020        0
  7213  481-61-60      -2   89   64   0.020  -0.020        0
  7214  481-66-49      -2   89   64   0.020  -0.020        0
  7215  481-71-33      -2   89   64   0.020  -0.020        0
  7216  473-38-7       -2   89   64   0.440   0.500        0
  7217  473-42-355     -2   89   64   0.440   0.500        0
  7218  484-38-6        3   89   63  -0.250  -0.260        0
  7219  455-22-51      -2   90   64   0.470   0.370        0
  7220  455-27-11      -2   90   64   0.470   0.370        0
  7221  455-38-7       -2   90   64   0.470   0.370        0
  7222  455-42-355     -2   90   64   0.470   0.370        0
  7223  455-48-336     -2   90   64   0.470   0.370        0
  7224  457-1-358       1   90   63   0.470   0.100        0
  7225  456-38-6        3   90   64   0.470  -0.320        0
  7226  456-42-356      3   90   64   0.470  -0.320        0
  7227  456-48-334      3   90   64   0.470  -0.320        0
  7228  456-56-10       3   90   64   0.470  -0.320        0
  7229  456-61-60       3   90   64   0.470  -0.320        0
  7230  456-66-54       3   90   64   0.470  -0.320        0
  7231  456-71-33       3   90   64   0.470  -0.320        0
  7232  454-8-253      -2   91   65  -0.490  -0.400        0
  7233  454-38-6       -2   91   65  -0.490  -0.400        0
  7234  454-42-355     -2   91   65  -0.490  -0.400        0
  7235  454-48-334     -2   91   65  -0.490  -0.400        0
  7236  454-56-10      -2   91   65  -0.490  -0.400        0
  7237  454-61-60      -2   91   65  -0.490  -0.400        0
  7238  454-66-49      -2   91   65  -0.490  -0.400        0
  7239  454-71-33      -2   91   65  -0.490  -0.400        0
  7240  483-48-334      2   89   65  -0.250  -0.050        0
  7241  475-1-365       1   89   65   0.400  -0.370        0
  7242  472-17-4       -2   89   66   0.480  -0.490        0
  7243  472-27-12      -2   89   66   0.480  -0.490        0
  7244  472-38-6       -2   89   66   0.480  -0.490        0
  7245  472-42-355     -2   89   66   0.480  -0.490        0
  7246  472-48-334     -2   89   66   0.480  -0.490        0
  7247  464-17-4        3   90   65  -0.060   0.410        0
  7248  464-27-12       3   90   65  -0.060   0.410        0
  7249  464-48-336      3   90   65  -0.060   0.410        0
  7250  442-71-61       2   91   74  -0.120   0.290        0
  7251  438-48-336      1   91   66   0.310   0.330        0
  7252  436-71-336      3   91   65   0.350   0.440        0
  7253  422-17-55       1   93   66  -0.420  -0.390        0
  7254  422-22-38       1   93   66  -0.420  -0.390        0
  7255  422-27-12       1   93   66  -0.420  -0.390        0
  7256  422-31-335      1   93   66  -0.420  -0.390        0
  7257  422-38-91       1   93   66  -0.420  -0.390        0
  7258  426-48-336      1   92   66   0.190   0.230        0
  7259  426-56-13       1   92   66   0.190   0.230        0
  7260  426-66-34       1   92   66   0.190   0.230        0
  7261  430-7-49        2   92   64  -0.420  -0.450        0
  7262  430-17-4        2   92   64  -0.420  -0.450        0
  7263  430-27-10       2   92   64  -0.420  -0.450        0
  7264  432-38-6       -2   92   64  -0.490   0.010        0
  7265  432-42-356     -2   92   64  -0.490   0.010        0
  7266  432-48-334     -2   92   64  -0.490   0.010        0
  7267  432-56-10      -2   92   64  -0.490   0.010        0
  7268  432-61-60      -2   92   64  -0.490   0.010        0
  7269  432-66-49      -2   92   64  -0.490   0.010        0
  7270  432-71-33      -2   92   64  -0.490   0.010        0
  7271  452-48-335      2   91   64  -0.450  -0.450        0
  7272  452-56-11       2   91   64  -0.450  -0.450        0
  7273  431-1-358       1   92   63  -0.450   0.160        0
  7274  431-6-340       1   92   63  -0.450   0.160        0
  7275  431-11-333      1   92   63  -0.450   0.160        0
  7276  431-36-38       2   92   63  -0.450   0.160        0
  7277  429-42-356     -2   92   64  -0.030   0.400        0
  7278  429-48-334     -2   92   64  -0.030   0.400        0
  7279  429-56-11      -2   92   64  -0.030   0.400        0
  7280  429-61-60      -2   92   64  -0.030   0.400        0
  7281  429-66-54      -2   92   64  -0.030   0.400        0
  7282  429-71-33      -2   92   64  -0.030   0.400        0
  7283  420-17-7       -2   93   64  -0.380  -0.410        0
  7284  420-27-10      -2   93   64  -0.380  -0.410        0
  7285  420-48-335      2   93   64  -0.380  -0.410        0
  7286  407-38-6       -2   94   63  -0.040  -0.200        0
  7287  407-42-355     -2   94   63  -0.040  -0.200        0
  7288  407-48-334     -2   94   63  -0.040  -0.200        0
  7289  401-38-6        2   94   64   0.420  -0.480        0
  7290  401-42-355      2   94   64   0.420  -0.480        0
  7291  401-48-335      2   94   64   0.420  -0.480        0
  7292  410-42-355      3   94   64  -0.310  -0.150        0
  7293  410-48-334      3   94   64  -0.310  -0.150        0
  7294  410-56-10       3   94   64  -0.310  -0.150        0
  7295  410-61-60       3   94   64  -0.310  -0.150        0
  7296  410-66-49       3   94   64  -0.310  -0.150        0
  7297  410-71-33       3   94   64  -0.310  -0.150        0
  7298  376-31-348      1   93   68   0.120  -0.040        0
  7299  376-37-19       1   93   68   0.120  -0.040        0
  7300  376-43-47       1   93   68   0.120  -0.040        0
  7301  376-48-343      1   93   68   0.120  -0.040        0
  7302  376-56-11       1   93   68   0.120  -0.040        0
  7303  376-60-321      1   93   68   0.120  -0.040        0
  7304  376-65-298      1   93   68   0.120  -0.040        0
  7305  414-71-365      2   93   68   0.300   0.490        0
  7306  416-34-357     -2   93   69   0.150   0.430        0
  7307  366-17-55       2   96   68   0.170   0.420        0
  7308  366-22-33       2   96   68   0.170   0.420        0
  7309  366-27-10       2   96   68   0.170   0.420        0
  7310  366-33-10       2   96   68   0.170   0.420        0
  7311  370-17-55      -2   96   65  -0.020   0.090        0
  7312  370-22-46      -2   96   65  -0.020   0.090        0
  7313  370-31-335     -2   96   65  -0.020   0.090        0
  7314  370-37-91      -2   96   65  -0.020   0.090        0
  7315  394-27-10       1   95   64  -0.090   0.370        0
  7316  389-42-355      3   95   64   0.070   0.010        0
  7317  389-48-334      3   95   64   0.070   0.010        0
  7318  389-56-10       3   95   64   0.070   0.010        0
  7319  389-61-60       3   95   64   0.070   0.010        0
  7320  389-66-48       3   95   64   0.070   0.010        0
  7321  389-71-33       3   95   64   0.070   0.010        0
  7322  382-48-334     -2   95   64   0.490   0.010        0
  7323  395-17-4       -2   95   63  -0.280  -0.330        0
  7324  395-27-13      -2   95   63  -0.280  -0.330        0
  7325  395-38-6        2   95   63  -0.280  -0.330        0
  7326  395-42-356      2   95   63  -0.280  -0.330        0
  7327  395-48-334      2   95   63  -0.280  -0.330        0
  7328  395-56-11       2   95   63  -0.280  -0.330        0
  7329  395-61-60       2   95   63  -0.280  -0.330        0
  7330  395-66-54       2   95   63  -0.280  -0.330        0
  7331  395-71-33       2   95   63  -0.280  -0.330        0
  7332  379-42-356      2   96   63  -0.440  -0.330        0
  7333  379-48-334      2   96   63  -0.440  -0.330        0
  7334  379-56-11       2   96   63  -0.440  -0.330        0
  7335  385-7-49        2   95   63   0.450   0.130        0
  7336  384-7-49        1   95   63   0.450   0.420        0
  7337  374-1-358       1   96   63  -0.130  -0.130        0
  7338  362-38-6       -2   96   63   0.440  -0.230        0
  7339  362-42-355     -2   96   63   0.440  -0.230        0
  7340  362-48-334     -2   96   63   0.440  -0.230        0
  7341  362-56-10      -2   96   63   0.440  -0.230        0
  7342  362-61-60      -2   96   63   0.440  -0.230        0
  7343  362-66-48      -2   96   63   0.440  -0.230        0
  7344  362-71-33       3   96   63   0.440  -0.230        0
  7345  360-26-313     -3   96   64   0.440  -0.480        0
  7346  360-38-6       -3   96   64   0.440  -0.480        0
  7347  371-38-6       -3   96   64  -0.020   0.040        0
  7348  371-42-355     -3   96   64  -0.020   0.040        0
  7349  355-48-342      2   97   63  -0.020   0.100        0
  7350  355-56-13       2   97   63  -0.020   0.100        0
  7351  355-61-61       2   97   63  -0.020   0.100        0
  7352  355-66-32       2   97   63  -0.020   0.100        0
  7353  353-1-365       1   97   63   0.320   0.330        0
  7354  353-8-22        1   97   63   0.320   0.330        0
  7355  353-11-304      1   97   63   0.320   0.330        0
  7356  353-61-61       1   97   63   0.320   0.330        0
  7357  353-66-32       1   97   63   0.320   0.330        0
  7358  501-27-60       3   88   84  -0.310   0.130        0
  7359  501-37-32       3   88   84  -0.310   0.130        0
  7360  501-43-53       3   88   84  -0.310   0.130        0
  7361  501-48-336      3   88   84  -0.310   0.130        0
  7362  501-56-17       3   88   84  -0.310   0.130        0
  7363  501-60-320      3   88   84  -0.310   0.130        0
  7364  501-65-299      3   88   84  -0.310   0.130        0
  7365  501-71-365      2   88   84  -0.310   0.130        0
  7366  536-61-52       1   86   75   0.180   0.450        0
  7367  536-66-18       1   86   75   0.180   0.450        0
  7368  536-71-62       1   86   75   0.180   0.450        0
  7369  540-43-50       1   86   76   0.020  -0.420        0
  7370  540-56-17       1   86   76   0.020  -0.420        0
  7371  451-37-32       3   91   85  -0.330   0.270        0
  7372  451-43-53       3   91   85  -0.330   0.270        0
  7373  451-48-336      3   91   85  -0.330   0.270        0
  7374  451-56-17       3   91   85  -0.330   0.270        0
  7375  451-61-52       3   91   85  -0.330   0.270        0
  7376  451-71-336      3   91   85  -0.330   0.270        0
  7377  419-71-61       2   93   76  -0.410   0.460        0
  7378  425-71-61       3   92   84   0.300   0.040        0
  7379  397-48-336      3   94   83   0.470   0.000        0
  7380  378-71-61       2   96   75  -0.410  -0.210        0
  7381  477-7-99        1   89   75   0.350   0.200        0
  7382  477-11-60       1   89   75   0.350   0.200        0
  7383  477-17-53       1   89   75   0.350   0.200        0
  7384  477-22-39       1   89   75   0.350   0.200        0
  7385  477-32-6        1   89   75   0.350   0.200        0
  7386  477-37-32       1   89   75   0.350   0.200        0
  7387  478-48-335      1   89   75   0.280   0.230        0
  7388  478-56-17       1   89   75   0.280   0.230        0
  7389  218-42-337      3  107   51  -0.230  -0.470        0
  7390  337-37-343      3   99   62  -0.300   0.220        0
  7391  337-43-14       3   99   62  -0.300   0.220        0
  7392  337-56-12       3   99   62  -0.300   0.220        0
  7393  337-61-61       3   99   62  -0.300   0.220        0
  7394  337-66-31       3   99   62  -0.300   0.220        0
  7395  328-56-11      -2   99   62   0.350   0.150        0
  7396  328-61-61      -2   99   62   0.350   0.150        0
  7397  328-66-32      -2   99   62   0.350   0.150        0
  7398  329-1-365       2   99   61   0.280  -0.380        0
  7399  327-1-365       1   99   61   0.430  -0.280        0
  7400  326-26-319     -3  100   61  -0.500   0.140        0
  7401  326-31-335     -3  100   61  -0.500   0.140        0
  7402  326-38-32      -3  100   61  -0.500   0.140        0
  7403  326-56-11      -3  100   61  -0.500   0.140        0
  7404  326-61-54      -3  100   61  -0.500   0.140        0
  7405  326-66-32      -3  100   61  -0.500   0.140        0
  7406  321-43-14       3  100   61  -0.190  -0.350        0
  7407  321-56-12       3  100   61  -0.190  -0.350        0
  7408  322-1-358       2  100   61  -0.110  -0.090        0
  7409  322-6-340       2  100   61  -0.110  -0.090        0
  7410  322-11-333      2  100   61  -0.110  -0.090        0
  7411  322-16-301      2  100   61  -0.110  -0.090        0
  7412  322-22-46       2  100   61  -0.110  -0.090        0
  7413  322-27-32       2  100   61  -0.110  -0.090        0
  7414  308-34-333     -3  100   61   0.460  -0.350        0
  7415  316-7-283       2  100   62   0.230  -0.440        0
  7416  316-11-333      2  100   62   0.230  -0.440        0
  7417  316-16-301      2  100   62   0.230  -0.440        0
  7418  316-22-46       2  100   62   0.230  -0.440        0
  7419  316-27-11       2  100   62   0.230  -0.440        0
  7420  316-31-335      2  100   62   0.230  -0.440        0
  7421  316-38-32       2  100   62   0.230  -0.440        0
  7422  316-48-337      2  100   62   0.230  -0.440        0
  7423  316-56-11       2  100   62   0.230  -0.440        0
  7424  316-60-321      2  100   62   0.230  -0.440        0
  7425  316-65-300      2  100   62   0.230  -0.440        0
  7426  310-1-365       1  100   61   0.380   0.340        0
  7427  310-27-49       1  100   61   0.380   0.340        0
  7428  310-56-11       1  100   61   0.380   0.340        0
  7429  310-61-54       1  100   61   0.380   0.340        0
  7430  310-66-32       1  100   61   0.380   0.340        0
  7431  324-1-365       2  100   62  -0.340  -0.340        0
  7432  307-56-11       1  100   62   0.460   0.450        0
  7433  335-1-365       1   99   60  -0.150   0.290        0
  7434  333-56-9       -2   99   60  -0.030   0.130        0
  7435  323-56-11       2  100   61  -0.300  -0.480        0
  7436  323-61-61       2  100   61  -0.300  -0.480        0
  7437  311-17-5       -3  100   60   0.310  -0.030        0
  7438  311-27-14      -3  100   60   0.310  -0.030        0
  7439  314-56-25       3  100   60   0.270   0.060        0
  7440  314-61-62       3  100   60   0.270   0.060        0
  7441  318-48-343      3  100   58   0.160  -0.260        0
  7442  302-42-348      3  101   58  -0.160   0.040        0
  7443  301-22-62       3  101   58  -0.120   0.460        0
  7444  301-27-6        3  101   58  -0.120   0.460        0
  7445  301-38-32       3  101   58  -0.120   0.460        0
  7446  295-22-62       3  101   58   0.380  -0.350        0
  7447  295-38-5        3  101   58   0.380  -0.350        0
  7448  295-56-24       3  101   58   0.380  -0.350        0
  7449  295-66-32       3  101   58   0.380  -0.350        0
  7450  281-38-5        3  102   58   0.150  -0.160        0
  7451  281-42-348      3  102   58   0.150  -0.160        0
  7452  270-22-62       3  103   58  -0.400  -0.350        0
  7453  270-38-32       3  103   58  -0.400  -0.350        0
  7454  271-38-5        3  102   58   0.450  -0.120        0
  7455  271-42-348      3  102   58   0.450  -0.120        0
  7456  271-48-337      3  102   58   0.450  -0.120        0
  7457  271-56-10       3  102   58   0.450  -0.120        0
  7458  271-61-61       3  102   58   0.450  -0.120        0
  7459  271-66-61       3  102   58   0.450  -0.120        0
  7460  290-56-25      -2  101   59   0.380   0.410        0
  7461  290-61-62      -2  101   59   0.380   0.410        0
  7462  280-17-4        1  102   59   0.150   0.340        0
  7463  280-27-14       1  102   59   0.150   0.340        0
  7464  278-7-274      -2  102   60   0.180   0.060        0
  7465  274-7-274      -2  102   61   0.180   0.210        0
  7466  274-38-7       -2  102   61   0.180   0.210        0
  7467  274-42-355     -2  102   61   0.180   0.210        0
  7468  274-48-335     -2  102   61   0.180   0.210        0
  7469  274-56-11      -2  102   61   0.180   0.210        0
  7470  279-17-5       -2  102   62   0.140  -0.040        0
  7471  279-42-355     -2  102   62   0.140  -0.040        0
  7472  282-42-355     -2  102   62   0.070  -0.040        0
  7473  282-48-335     -2  102   62   0.070  -0.040        0
  7474  282-56-11      -2  102   62   0.070  -0.040        0
  7475  282-61-60      -2  102   62   0.070  -0.040        0
  7476  282-66-48      -2  102   62   0.070  -0.040        0
  7477  265-42-355     -2  103   62   0.020   0.150        0
  7478  265-48-335     -2  103   62   0.020   0.150        0
  7479  265-56-11      -2  103   62   0.020   0.150        0
  7480  265-61-60      -2  103   62   0.020   0.150        0
  7481  265-66-48      -2  103   62   0.020   0.150        0
  7482  265-71-34      -2  103   62   0.020   0.150        0
  7483  264-38-7        2  103   62   0.020  -0.080        0
  7484  264-42-355      2  103   62   0.020  -0.080        0
  7485  264-48-335      2  103   62   0.020  -0.080        0
  7486  264-56-11       2  103   62   0.020  -0.080        0
  7487  264-61-60       2  103   62   0.020  -0.080        0
  7488  264-66-48       2  103   62   0.020  -0.080        0
  7489  264-71-34       2  103   62   0.020  -0.080        0
  7490  268-1-365       2  103   61  -0.050   0.340        0
  7491  268-38-7        2  103   61  -0.050   0.340        0
  7492  268-43-47       2  103   61  -0.050   0.340        0
  7493  268-48-335      2  103   61  -0.050   0.340        0
  7494  250-7-274      -2  104   61  -0.320  -0.020        0
  7495  250-17-5       -2  104   61  -0.320  -0.020        0
  7496  250-38-7       -2  104   61  -0.320  -0.020        0
  7497  250-42-355     -2  104   61  -0.320  -0.020        0
  7498  250-56-11      -2  104   61  -0.320  -0.020        0
  7499  250-61-60      -2  104   61  -0.320  -0.020        0
  7500  250-66-48      -2  104   61  -0.320  -0.020        0
  7501  250-71-34      -2  104   61  -0.320  -0.020        0
  7502  252-48-335     -2  104   62  -0.320  -0.300        0
  7503  256-42-355     -2  103   60   0.370   0.160        0
  7504  256-48-335     -2  103   60   0.370   0.160        0
  7505  256-56-11      -2  103   60   0.370   0.160        0
  7506  256-61-60      -2  103   60   0.370   0.160        0
  7507  256-66-48      -2  103   60   0.370   0.160        0
  7508  256-71-34      -2  103   60   0.370   0.160        0
  7509  261-17-5       -3  103   59   0.180   0.180        0
  7510  261-17-64      -3  103   59   0.180   0.180        0
  7511  261-22-41      -3  103   59   0.180   0.180        0
  7512  262-48-338      3  103   59   0.100   0.180        0
  7513  262-56-9        3  103   59   0.100   0.180        0
  7514  262-61-62       3  103   59   0.100   0.180        0
  7515  247-1-365       2  104   59   0.170   0.410        0
  7516  247-7-291       2  104   59   0.170   0.410        0
  7517  247-27-11       2  104   59   0.170   0.410        0
  7518  266-36-1        2  103   58   0.030   0.070        0
  7519  260-48-338      2  103   58   0.330  -0.220        0
  7520  259-56-9        3  103   58   0.250  -0.220        0
  7521  259-61-62       3  103   58   0.250  -0.220        0
  7522  259-66-47       3  103   58   0.250  -0.220        0
  7523  259-71-35       3  103   58   0.250  -0.220        0
  7524  269-38-4        3  103   55  -0.240  -0.290        0
  7525  269-42-337      3  103   55  -0.240  -0.290        0
  7526  269-48-337      3  103   55  -0.240  -0.290        0
  7527  269-56-10       3  103   55  -0.240  -0.290        0
  7528  269-61-61       3  103   55  -0.240  -0.290        0
  7529  269-66-61       3  103   55  -0.240  -0.290        0
  7530  257-56-10       3  104   55  -0.480  -0.160        0
  7531  257-61-61       3  104   55  -0.480  -0.160        0
  7532  257-66-61       3  104   55  -0.480  -0.160        0
  7533  254-38-4        3  104   55  -0.360  -0.290        0
  7534  254-42-337      3  104   55  -0.360  -0.290        0
  7535  253-48-337     -2  104   56  -0.400   0.440        0
  7536  253-56-10      -2  104   56  -0.400   0.440        0
  7537  253-61-61      -2  104   56  -0.400   0.440        0
  7538  253-66-61      -2  104   56  -0.400   0.440        0
  7539  248-38-5        3  104   51   0.060   0.280        0
  7540  248-42-337      3  104   51   0.060   0.280        0
  7541  248-48-337      3  104   51   0.060   0.280        0
  7542  241-48-337      3  105   56  -0.480   0.440        0
  7543  241-56-10       3  105   56  -0.480   0.440        0
  7544  241-61-61       3  105   56  -0.480   0.440        0
  7545  241-66-61       3  105   56  -0.480   0.440        0
  7546  229-48-337      3  106   57  -0.490  -0.500        0
  7547  229-56-11       3  106   57  -0.490  -0.500        0
  7548  242-38-4        3  105   55  -0.370  -0.230        0
  7549  242-42-337      3  105   55  -0.370  -0.230        0
  7550  243-56-10       3  105   55  -0.370  -0.330        0
  7551  238-56-10       3  105   55  -0.180  -0.290        0
  7552  235-56-10       3  105   55   0.050  -0.330        0
  7553  228-38-5        3  106   55  -0.490  -0.230        0
  7554  228-42-348      3  106   55  -0.490  -0.230        0
  7555  228-48-337      3  106   55  -0.490  -0.230        0
  7556  230-48-337     -2  105   55   0.470  -0.290        0
  7557  230-56-10      -2  105   55   0.470  -0.290        0
  7558  232-31-335     -3  105   58   0.320   0.040        0
  7559  232-37-361     -3  105   58   0.320   0.040        0
  7560  232-48-337     -2  105   58   0.320   0.040        0
  7561  232-56-9       -2  105   58   0.320   0.040        0
  7562  232-61-62      -2  105   58   0.320   0.040        0
  7563  232-66-47      -2  105   58   0.320   0.040        0
  7564  232-71-35      -2  105   58   0.320   0.040        0
  7565  237-17-5        3  105   60  -0.060  -0.430        0
  7566  237-27-11       3  105   60  -0.060  -0.430        0
  7567  237-37-357      3  105   60  -0.060  -0.430        0
  7568  237-42-355      3  105   60  -0.060  -0.430        0
  7569  237-48-335      3  105   60  -0.060  -0.430        0
  7570  237-56-11       3  105   60  -0.060  -0.430        0
  7571  237-61-60       3  105   60  -0.060  -0.430        0
  7572  237-66-48       3  105   60  -0.060  -0.430        0
  7573  237-71-34       3  105   60  -0.060  -0.430        0
  7574  239-1-365      -2  105   61  -0.290  -0.320        0
  7575  239-42-355     -2  105   61  -0.290  -0.320        0
  7576  240-22-1       -3  105   61  -0.290  -0.320        0
  7577  240-38-7       -3  105   61  -0.290  -0.320        0
  7578  240-48-335     -3  105   61  -0.290  -0.320        0
  7579  240-56-10      -3  105   61  -0.290  -0.320        0
  7580  240-66-48      -3  105   61  -0.290  -0.320        0
  7581  240-71-34      -3  105   61  -0.290  -0.320        0
  7582  231-48-335      3  105   61   0.320  -0.150        0
  7583  231-56-10       3  105   61   0.320  -0.150        0
  7584  233-17-5       -3  105   61   0.130  -0.320        0
  7585  233-38-7       -3  105   61   0.130  -0.320        0
  7586  233-42-355     -3  105   61   0.130  -0.320        0
  7587  234-42-355     -3  105   61   0.210  -0.320        0
  7588  234-48-335     -3  105   61   0.210  -0.320        0
  7589  234-56-10      -3  105   61   0.210  -0.320        0
  7590  234-60-322     -3  105   61   0.210  -0.320        0
  7591  234-66-48      -3  105   61   0.210  -0.320        0
  7592  234-71-34      -3  105   61   0.210  -0.320        0
  7593  213-1-310       2  107   61  -0.030  -0.410        0
  7594  213-6-310       2  107   61  -0.030  -0.410        0
  7595  213-27-11       2  107   61  -0.030  -0.410        0
  7596  213-42-355      2  107   61  -0.030  -0.410        0
  7597  216-7-291      -2  107   60  -0.300  -0.360        0
  7598  216-22-32      -2  107   60  -0.300  -0.360        0
  7599  216-27-11      -2  107   60  -0.300  -0.360        0
  7600  216-38-7       -2  107   60  -0.300  -0.360        0
  7601  216-42-355     -2  107   60  -0.300  -0.360        0
  7602  210-1-365       2  107   59   0.040   0.080        0
  7603  210-38-7        2  107   59   0.040   0.080        0
  7604  210-42-355      2  107   59   0.040   0.080        0
  7605  210-48-335      2  107   59   0.040   0.080        0
  7606  210-56-11       2  107   59   0.040   0.080        0
  7607  189-17-6       -2  108   59   0.500   0.050        0
  7608  189-22-54      -2  108   59   0.500   0.050        0
  7609  189-27-11      -2  108   59   0.500   0.050        0
  7610  189-38-7       -2  108   59   0.500   0.050        0
  7611  189-42-355     -2  108   59   0.500   0.050        0
  7612  189-48-335     -2  108   59   0.500   0.050        0
  7613  189-56-9       -2  108   59   0.500   0.050        0
  7614  189-61-60      -2  108   59   0.500   0.050        0
  7615  189-66-48      -2  108   59   0.500   0.050        0
  7616  189-71-34      -2  108   59   0.500   0.050        0
  7617  200-38-7       -2  108   60  -0.310  -0.030        0
  7618  200-42-356     -2  108   60  -0.310  -0.030        0
  7619  200-48-335     -2  108   60  -0.310  -0.030        0
  7620  200-56-9       -2  108   60  -0.310  -0.030        0
  7621  200-61-60      -2  108   60  -0.310  -0.030        0
  7622  200-66-48      -2  108   60  -0.310  -0.030        0
  7623  201-38-7       -2  107   59   0.390  -0.370        0
  7624  201-42-356     -2  107   59   0.390  -0.370        0
  7625  201-48-335     -2  107   59   0.390  -0.370        0
  7626  201-56-11      -2  107   59   0.390  -0.370        0
  7627  201-61-60      -2  107   59   0.390  -0.370        0
  7628  201-66-48      -2  107   59   0.390  -0.370        0
  7629  201-71-34      -2  107   59   0.390  -0.370        0
  7630  199-17-5        3  107   58   0.460   0.300        0
  7631  199-22-54       3  107   58   0.460   0.300        0
  7632  199-27-11       3  107   58   0.460   0.300        0
  7633  199-38-7        3  107   58   0.460   0.300        0
  7634  199-42-356      3  107   58   0.460   0.300        0
  7635  199-48-335      3  107   58   0.460   0.300        0
  7636  217-38-5        2  107   55  -0.230  -0.100        0
  7637  217-42-348      3  107   55  -0.230  -0.100        0
  7638  220-38-5       -2  107   55  -0.380  -0.190        0
  7639  220-42-348     -2  107   55  -0.380  -0.190        0
  7640  220-56-10      -2  107   55  -0.380  -0.190        0
  7641  220-61-61      -2  107   55  -0.380  -0.190        0
  7642  220-66-61      -2  107   55  -0.380  -0.190        0
  7643  204-38-5        2  108   55  -0.460  -0.260        0
  7644  204-42-348      2  108   55  -0.460  -0.260        0
  7645  202-38-5       -2  108   55  -0.380  -0.200        0
  7646  202-42-348     -2  108   55  -0.380  -0.200        0
  7647  198-39-190     -2  108   55  -0.040  -0.160        0
  7648  194-39-138     -2  108   55   0.380  -0.030        0
  7649  190-56-10       3  108   55   0.420  -0.130        0
  7650  190-61-61       3  108   55   0.420  -0.130        0
  7651  192-38-5        3  108   54   0.460  -0.240        0
  7652  192-42-337      3  108   54   0.460  -0.240        0
  7653  191-39-212     -2  108   54   0.460  -0.110        0
  7654  193-38-5       -2  108   54   0.420   0.350        0
  7655  193-42-348     -2  108   54   0.420   0.350        0
  7656  188-56-10       3  108   53   0.500  -0.350        0
  7657  188-61-61       3  108   53   0.500  -0.350        0
  7658  188-66-61       3  108   53   0.500  -0.350        0
  7659  187-56-10       3  108   54   0.500  -0.440        0
  7660  187-61-61       3  108   54   0.500  -0.440        0
  7661  187-66-62       3  108   54   0.500  -0.440        0
  7662  179-48-337      2  111   54  -0.480   0.250        0
  7663  14-1-365        2  111   58   0.250  -0.350        0
  7664  185-1-365       2  109   58   0.220   0.140        0
  7665  185-10-60       2  109   58   0.220   0.140        0
  7666  185-38-7        2  109   58   0.220   0.140        0
  7667  185-42-355      2  109   58   0.220   0.140        0
  7668  181-38-7       -2  110   58  -0.050  -0.060        0
  7669  181-48-335     -2  110   58  -0.050  -0.060        0
  7670  181-56-11      -2  110   58  -0.050  -0.060        0
  7671  181-61-60      -2  110   58  -0.050  -0.060        0
  7672  181-66-48      -2  110   58  -0.050  -0.060        0
  7673  181-71-34      -2  110   58  -0.050  -0.060        0
  7674  186-48-335      1  109   60  -0.010  -0.460        0
  7675  183-48-335      1  110   59  -0.320  -0.080        0
  7676  182-42-355     -2  110   59  -0.360  -0.110        0
  7677  182-48-335     -2  110   59  -0.360  -0.110        0
  7678  182-56-9       -2  110   59  -0.360  -0.110        0
  7679  182-61-60      -2  110   59  -0.360  -0.110        0
  7680  182-66-48      -2  110   59  -0.360  -0.110        0
  7681  182-71-34      -2  110   59  -0.360  -0.110        0
  7682  180-48-335      1  110   59   0.030   0.350        0
  7683  184-12-80       1  109   61   0.490  -0.280        0
  7684  184-17-60       1  109   61   0.490  -0.280        0
  7685  184-22-62       1  109   61   0.490  -0.280        0
  7686  184-27-6        1  109   61   0.490  -0.280        0
  7687  184-31-335      1  109   61   0.490  -0.280        0
  7688  184-37-32       1  109   61   0.490  -0.280        0
  7689  184-42-299      1  109   61   0.490  -0.280        0
  7690  184-48-337      1  109   61   0.490  -0.280        0
  7691  184-56-12       1  109   61   0.490  -0.280        0
  7692  184-66-55       1  109   61   0.490  -0.280        0
  7693  305-56-11       1  100   63   0.500   0.230        0
  7694  305-61-61       1  100   63   0.500   0.230        0
  7695  305-66-32       1  100   63   0.500   0.230        0
  7696  325-37-344      3  100   64  -0.420  -0.180        0
  7697  325-43-14       3  100   64  -0.420  -0.180        0
  7698  325-48-342      3  100   64  -0.420  -0.180        0
  7699  325-56-12       3  100   64  -0.420  -0.180        0
  7700  325-61-61       3  100   64  -0.420  -0.180        0
  7701  325-66-31       3  100   64  -0.420  -0.180        0
  7702  292-61-61       2  101   66   0.380   0.300        0
  7703  296-26-321      2  101   67   0.300  -0.440        0
  7704  296-31-335      2  101   67   0.300  -0.440        0
  7705  296-37-344      2  101   67   0.300  -0.440        0
  7706  296-43-14       2  101   67   0.300  -0.440        0
  7707  296-48-342      2  101   67   0.300  -0.440        0
  7708  296-56-11       2  101   67   0.300  -0.440        0
  7709  296-60-321      2  101   67   0.300  -0.440        0
  7710  296-65-300     -2  101   67   0.300  -0.440        0
  7711  297-17-4       -2  101   65   0.220   0.320        0
  7712  297-22-54      -2  101   65   0.220   0.320        0
  7713  297-27-11      -2  101   65   0.220   0.320        0
  7714  297-56-12       2  101   65   0.220   0.320        0
  7715  297-61-61       2  101   65   0.220   0.320        0
  7716  297-66-32       2  101   65   0.220   0.320        0
  7717  272-33-177      2  102   66   0.260   0.400        0
  7718  245-48-342      2  104   65   0.210  -0.330        0
  7719  245-56-12       2  104   65   0.210  -0.330        0
  7720  221-33-346     -2  106   63   0.430   0.130        0
  7721  222-48-343      2  106   63   0.470   0.070        0
  7722  222-56-9        2  106   63   0.470   0.070        0
  7723  222-61-60       2  106   63   0.470   0.070        0
  7724  222-66-54       2  106   63   0.470   0.070        0
  7725  222-71-34       2  106   63   0.470   0.070        0
  7726  223-48-343     -2  106   63   0.390   0.100        0
  7727  223-56-9       -2  106   63   0.390   0.100        0
  7728  223-61-60      -2  106   63   0.390   0.100        0
  7729  223-71-35      -2  106   63   0.390   0.100        0
  7730  219-71-365      2  107   64  -0.260  -0.280        0
  7731  102-43-8        3  121   50   0.080   0.490        0
  7732  102-48-344      3  121   50   0.080   0.490        0
  7733  92-71-40        1  122   51   0.150  -0.350        0
  7734  177-17-6        1  111   58  -0.360   0.330        0
  7735  177-38-7        1  111   58  -0.360   0.330        0
  7736  177-42-355      1  111   58  -0.360   0.330        0
  7737  177-48-335      1  111   58  -0.360   0.330        0
  7738  169-38-4       -3  111   58   0.210  -0.190        0
  7739  169-42-334     -3  111   58   0.210  -0.190        0
  7740  169-56-11      -3  111   58   0.210  -0.190        0
  7741  168-1-365      -2  111   58   0.440   0.430        0
  7742  170-38-7        3  111   58   0.400   0.270        0
  7743  170-42-355     -3  111   58   0.400   0.270        0
  7744  170-48-335     -3  111   58   0.400   0.270        0
  7745  170-56-9       -3  111   58   0.400   0.270        0
  7746  170-61-60      -3  111   58   0.400   0.270        0
  7747  170-66-48      -3  111   58   0.400   0.270        0
  7748  170-71-34       3  111   58   0.400   0.270        0
  7749  176-1-280      -2  111   57  -0.250   0.090        0
  7750  176-6-340      -2  111   57  -0.250   0.090        0
  7751  176-11-333     -2  111   57  -0.250   0.090        0
  7752  176-16-332     -2  111   57  -0.250   0.090        0
  7753  176-38-7       -2  111   57  -0.250   0.090        0
  7754  172-12-80       2  111   54   0.060  -0.080        0
  7755  172-17-60       2  111   54   0.060  -0.080        0
  7756  172-22-62       2  111   54   0.060  -0.080        0
  7757  172-27-6        2  111   54   0.060  -0.080        0
  7758  172-31-344      2  111   54   0.060  -0.080        0
  7759  172-36-335      2  111   54   0.060  -0.080        0
  7760  172-48-335      2  111   54   0.060  -0.080        0
  7761  172-56-11       2  111   54   0.060  -0.080        0
  7762  172-61-59       2  111   54   0.060  -0.080        0
  7763  171-43-47       2  111   54   0.060  -0.080        0
  7764  171-48-335      2  111   54   0.060  -0.080        0
  7765  171-56-11       2  111   54   0.060  -0.080        0
  7766  171-60-322      2  111   54   0.060  -0.080        0
  7767  171-65-298      2  111   54   0.060  -0.080        0
  7768  171-71-13       2  111   54   0.060  -0.080        0
  7769  164-33-152     -2  112   54   0.320  -0.340        0
  7770  167-48-335      2  112   54  -0.370  -0.140        0
  7771  167-56-11       2  112   54  -0.370  -0.140        0
  7772  166-61-56       2  112   54  -0.330   0.120        0
  7773  166-66-53       2  112   54  -0.330   0.120        0
  7774  166-71-35       2  112   54  -0.330   0.120        0
  7775  178-48-336      2  111   52  -0.400  -0.300        0
  7776  178-56-11       2  111   52  -0.400  -0.300        0
  7777  174-48-336      3  111   52   0.020   0.060        0
  7778  161-48-336      3  113   52  -0.220  -0.400        0
  7779  161-56-11       3  113   52  -0.220  -0.400        0
  7780  161-61-56       3  113   52  -0.220  -0.400        0
  7781  161-66-54       3  113   52  -0.220  -0.400        0
  7782  161-71-41       3  113   52  -0.220  -0.400        0
  7783  153-48-335      2  114   53   0.200  -0.450        0
  7784  163-48-336      2  113   53  -0.490  -0.030        0
  7785  163-56-11       2  113   53  -0.490  -0.030        0
  7786  163-61-59       2  113   53  -0.490  -0.030        0
  7787  163-66-54       2  113   53  -0.490  -0.030        0
  7788  163-71-41       2  113   53  -0.490  -0.030        0
  7789  156-48-336      2  114   53  -0.450  -0.060        0
  7790  156-56-11       2  114   53  -0.450  -0.060        0
  7791  157-1-358       1  113   56   0.320  -0.350        0
  7792  157-22-54       1  113   56   0.320  -0.350        0
  7793  157-27-11       1  113   56   0.320  -0.350        0
  7794  157-31-348      1  113   56   0.320  -0.350        0
  7795  157-37-22       1  113   56   0.320  -0.350        0
  7796  157-43-47       1  113   56   0.320  -0.350        0
  7797  157-48-335      1  113   56   0.320  -0.350        0
  7798  157-56-9        1  113   56   0.320  -0.350        0
  7799  157-60-322      1  113   56   0.320  -0.350        0
  7800  157-65-298      1  113   56   0.320  -0.350        0
  7801  157-71-365      1  113   56   0.320  -0.350        0
  7802  154-42-341      1  114   56  -0.030   0.110        0
  7803  159-38-4       -3  113   57  -0.030  -0.300        0
  7804  159-56-11      -3  113   57  -0.030  -0.300        0
  7805  147-38-4       -3  115   56  -0.270  -0.450        0
  7806  147-42-334     -3  115   56  -0.270  -0.450        0
  7807  147-56-11      -3  115   56  -0.270  -0.450        0
  7808  149-1-280       1  115   55   0.040   0.490        0
  7809  150-48-335      1  115   54   0.040   0.080        0
  7810  150-56-9        1  115   54   0.040   0.080        0
  7811  137-48-335      1  116   54   0.340  -0.110        0
  7812  137-56-9        1  116   54   0.340  -0.110        0
  7813  137-61-56       1  116   54   0.340  -0.110        0
  7814  137-66-53       1  116   54   0.340  -0.110        0
  7815  136-38-4       -2  116   55   0.420  -0.460        0
  7816  136-42-341     -2  116   55   0.420  -0.460        0
  7817  136-56-11      -2  116   55   0.420  -0.460        0
  7818  152-48-336      2  114   53   0.430  -0.420        0
  7819  129-17-5        1  118   54  -0.320  -0.150        0
  7820  129-27-11       1  118   54  -0.320  -0.150        0
  7821  123-42-348     -2  118   54   0.140  -0.340        0
  7822  128-42-348      1  118   54  -0.400  -0.010        0
  7823  128-56-11       1  118   54  -0.400  -0.010        0
  7824  133-12-362      2  116   56   0.500  -0.390        0
  7825  133-17-61       2  116   56   0.500  -0.390        0
  7826  133-27-6        2  116   56   0.500  -0.390        0
  7827  133-31-335      2  116   56   0.500  -0.390        0
  7828  133-38-4        2  116   56   0.500  -0.390        0
  7829  133-42-341      2  116   56   0.500  -0.390        0
  7830  133-48-335      2  116   56   0.500  -0.390        0
  7831  133-56-9        2  116   56   0.500  -0.390        0
  7832  133-71-365      2  116   56   0.500  -0.390        0
  7833  127-1-365       1  118   55  -0.210   0.360        0
  7834  127-17-1        1  118   55  -0.210   0.360        0
  7835  130-42-341     -2  117   55   0.490   0.130        0
  7836  130-48-335     -2  117   55   0.490   0.130        0
  7837  130-56-9       -2  117   55   0.490   0.130        0
  7838  126-27-11       1  118   55  -0.170  -0.100        0
  7839  135-48-336      2  116   58   0.490  -0.160        0
  7840  135-56-9        2  116   58   0.490  -0.160        0
  7841  122-48-336      2  119   57  -0.440   0.390        0
  7842  120-12-310      2  119   53   0.270  -0.170        0
  7843  120-17-5        2  119   53   0.270  -0.170        0
  7844  120-27-6        2  119   53   0.270  -0.170        0
  7845  120-31-335      2  119   53   0.270  -0.170        0
  7846  120-37-32       2  119   53   0.270  -0.170        0
  7847  120-42-341      2  119   53   0.270  -0.170        0
  7848  120-48-336      2  119   53   0.270  -0.170        0
  7849  120-56-10       2  119   53   0.270  -0.170        0
  7850  120-61-59       2  119   53   0.270  -0.170        0
  7851  120-65-292      2  119   53   0.270  -0.170        0
  7852  120-71-365      2  119   53   0.270  -0.170        0
  7853  118-38-4       -2  120   53  -0.370   0.070        0
  7854  118-42-341     -2  120   53  -0.370   0.070        0
  7855  118-48-349     -2  120   53  -0.370   0.070        0
  7856  118-56-10      -2  120   53  -0.370   0.070        0
  7857  107-27-69       2  120   53   0.400  -0.130        0
  7858  114-48-336     -3  120   54   0.010   0.310        0
  7859  114-56-10      -3  120   54   0.010   0.310        0
  7860  112-43-8        1  120   52   0.050   0.190        0
  7861  112-48-335      1  120   52   0.050   0.190        0
  7862  112-56-9        1  120   52   0.050   0.190        0
  7863  112-61-52       1  120   52   0.050   0.190        0
  7864  112-66-45       1  120   52   0.050   0.190        0
  7865  112-71-13       1  120   52   0.050   0.190        0
  7866  104-60-299      1  121   52  -0.110   0.050        0
  7867  104-65-292      1  121   52  -0.110   0.050        0
  7868  100-22-61       2  121   52   0.310   0.320        0
  7869  101-61-53       2  121   51   0.160  -0.190        0
  7870  97-22-54        1  121   51   0.430  -0.190        0
  7871  97-27-10        1  121   51   0.430  -0.190        0
  7872  98-43-8         1  121   51   0.390   0.430        0
  7873  98-48-348       1  121   51   0.390   0.430        0
  7874  98-56-10        1  121   51   0.390   0.430        0
  7875  98-61-52        1  121   51   0.390   0.430        0
  7876  98-66-45        1  121   51   0.390   0.430        0
  7877  105-43-69       2  121   54  -0.300   0.020        0
  7878  105-48-348      2  121   54  -0.300   0.020        0
  7879  105-56-10       2  121   54  -0.300   0.020        0
  7880  105-61-55       2  121   54  -0.300   0.020        0
  7881  105-66-45       2  121   54  -0.300   0.020        0
  7882  99-5-1          1  121   54   0.310  -0.110        0
  7883  106-56-10       2  121   57  -0.410  -0.270        0
  7884  106-61-59       2  121   57  -0.410  -0.270        0
  7885  106-66-45       2  121   57  -0.410  -0.270        0
  7886  106-71-40       2  121   57  -0.410  -0.270        0
  7887  95-71-40        3  122   58  -0.340  -0.480        0
  7888  3393-25-338     2    3   12  -0.200  -0.450        0
  7889  3312-25-338     2    9   13  -0.340  -0.460        0
  7890  3288-25-341     2   11   12  -0.080   0.390        0
  7891  3282-25-341     2   11   14   0.250  -0.480        0
  7892  3259-25-341    -2   14   15   0.410  -0.150        0
  7893  3222-25-229     1   16   24  -0.190   0.120        0
  7894  3213-25-337     2   16   20   0.420   0.420        0
  7895  3199-25-339    -2   17   26   0.350   0.320        0
  7896  3175-25-339     2   18   24   0.460   0.500        0
  7897  3170-25-342     2   19   22  -0.090   0.450        0
  7898  3200-25-336    -2   18   36  -0.090   0.180        0
  7899  3154-25-336     2   20   32   0.120  -0.340        0
  7900  3138-25-336     2   20   32   0.390   0.470        0
  7901  3046-25-344     2   25   31  -0.370  -0.450        0
  7902  3036-25-344     2   25   31   0.170  -0.450        0
  7903  3038-25-339    -3   25   35   0.140  -0.430        0
  7904  2684-25-3       3   37   15  -0.170   0.320        0
  7905  2919-25-351     2   30   39  -0.340  -0.310        0
  7906  2719-25-113     2   36   59  -0.090  -0.020        0
  7907  1933-25-180    -2   50   61   0.220  -0.390        0
  7908  1387-25-60     -2   60   61  -0.480  -0.030        0
  7909  1427-25-27      1   58   59   0.410  -0.180        0
  7910  1661-25-60      1   53   73   0.010  -0.030        0
  7911  1390-25-365    -2   60   65  -0.440  -0.360        0
  7912  1904-25-317     2   51   82  -0.460   0.010        0
  7913  1379-25-91      2   60   85  -0.130  -0.310        0
  7914  1796-25-321     3   52   90  -0.400  -0.190        0
  7915  1753-25-321     2   52   88  -0.170   0.250        0
  7916  1705-25-328     2   52   92   0.320   0.320        0
  7917  1064-25-125    -2   67   57   0.140  -0.040        0
  7918  831-25-335     -2   74   59  -0.360  -0.310        0
  7919  1066-25-335     2   67   90  -0.100   0.210        0
  7920  723-25-363      2   78   23   0.220  -0.320        0
  7921  568-25-307     -2   85   64   0.040   0.360        0
  7922  544-25-309      1   86   66  -0.120  -0.130        0
  7923  780-25-329      1   75   68   0.400   0.330        0
  7924  526-25-307      1   87   66  -0.390  -0.200        0
  7925  370-25-308     -2   96   65  -0.020   0.090        0
  7926  265-25-7       -2  103   62   0.020   0.150        0
  7927  266-25-43       2  103   58   0.030   0.070        0
  7928  232-25-314     -3  105   58   0.320   0.040        0
  7929  100-25-316      2  121   52   0.310   0.320        0
  7930  3205-26-8       2   17   18  -0.170   0.310        0
  7931  3174-26-7       2   18   22   0.370   0.330        0
  7932  3163-26-13      2   20   24  -0.360   0.110        0
  7933  3100-26-12     -2   22   17   0.490   0.480        0
  7934  3097-26-7       2   22   22   0.470   0.410        0
  7935  3096-26-12      2   22   24   0.360   0.360        0
  7936  3053-26-11      2   24   21   0.450   0.010        0
  7937  3065-26-12     -2   24   17  -0.210   0.440        0
  7938  3033-26-11     -2   25   19   0.250   0.420        0
  7939  2989-26-12      2   26   22   0.410  -0.480        0
  7940  3083-26-152    -2   23   34   0.150  -0.270        0
  7941  3040-26-13      2   25   28   0.050   0.470        0
  7942  2997-26-123     2   26   56   0.230  -0.360        0
  7943  3016-26-123     2   26   58  -0.270  -0.350        0
  7944  2953-26-14      2   28   25   0.330  -0.430        0
  7945  2963-26-14      2   28   22  -0.140   0.270        0
  7946  2968-26-13     -2   28   20  -0.330   0.290        0
  7947  2906-26-13     -2   30   20   0.420   0.380        0
  7948  2905-26-13     -2   30   25   0.430  -0.080        0
  7949  2874-26-14      2   31   23   0.420  -0.390        0
  7950  2780-26-13      3   34   18   0.470   0.410        0
  7951  2779-26-13     -2   34   20   0.480   0.040        0
  7952  2787-26-14      2   34   24   0.410   0.000        0
  7953  2790-26-14     -2   34   25   0.450   0.300        0
  7954  2772-26-13      3   35   17  -0.420  -0.340        0
  7955  2639-26-13     -2   38   20   0.380   0.350        0
  7956  2974-26-15      2   27   38   0.320  -0.410        0
  7957  2937-26-14     -2   29   37   0.120   0.130        0
  7958  2885-26-14      2   31   34  -0.120   0.110        0
  7959  2867-26-14      2   32   33  -0.400  -0.390        0
  7960  2837-26-14      2   32   31   0.210  -0.370        0
  7961  2748-26-15      2   35   31   0.120  -0.470        0
  7962  2694-26-15      2   36   31   0.460  -0.180        0
  7963  2933-26-15      2   29   28   0.180  -0.410        0
  7964  2851-26-14      2   32   28   0.010  -0.450        0
  7965  2711-26-15      2   36   29   0.150  -0.460        0
  7966  2928-26-18      2   29   40   0.320  -0.470        0
  7967  2811-26-14      2   32   39   0.150  -0.380        0
  7968  2808-26-18      2   33   39   0.490  -0.250        0
  7969  2766-26-47      2   35   48  -0.090  -0.190        0
  7970  2789-26-18      2   34   39   0.250   0.170        0
  7971  2696-26-18      2   36   44   0.360   0.430        0
  7972  2977-26-123    -2   27   60   0.460  -0.140        0
  7973  2914-26-120     2   30   52  -0.020   0.490        0
  7974  2930-26-123     2   30   61  -0.440  -0.430        0
  7975  2898-26-120     2   31   52  -0.480   0.190        0
  7976  2841-26-120     2   32   57   0.310  -0.290        0
  7977  2774-26-120     2   35   58  -0.270   0.010        0
  7978  2762-26-26      2   35   56  -0.270   0.450        0
  7979  2733-26-1       2   36   52  -0.430   0.190        0
  7980  2742-26-26      2   36   54   0.370   0.500        0
  7981  2670-26-18      2   37   54   0.400   0.500        0
  7982  2660-26-120     2   38   59   0.020  -0.210        0
  7983  2931-26-22      2   29   63   0.210   0.430        0
  7984  2595-26-12     -2   40   19   0.440   0.310        0
  7985  2596-26-1      -2   40   18   0.400   0.360        0
  7986  2589-26-11      3   40   15   0.390   0.310        0
  7987  2588-26-1       3   40   16   0.470   0.120        0
  7988  2564-26-12      3   41   18   0.090   0.390        0
  7989  2529-26-12     -2   42   20   0.440   0.370        0
  7990  2449-26-11      2   44   25   0.360   0.310        0
  7991  2492-26-13     -2   43   22   0.400   0.420        0
  7992  2452-26-12     -2   44   20   0.430   0.330        0
  7993  2303-26-1      -2   46   17   0.370  -0.050        0
  7994  2296-26-12     -2   46   21   0.420   0.370        0
  7995  2301-26-14     -2   46   23   0.460   0.350        0
  7996  2300-26-11     -2   46   25   0.280   0.370        0
  7997  2220-26-11     -2   47   26   0.390  -0.250        0
  7998  2089-26-1      -2   48   23   0.410  -0.170        0
  7999  2088-26-12     -2   48   24   0.420  -0.200        0
  8000  2448-26-11      2   44   28   0.410   0.170        0
  8001  2099-26-1      -2   48   27   0.390  -0.470        0
  8002  1922-26-1      -2   50   27   0.340   0.340        0
  8003  1983-26-11      2   50   30  -0.310   0.330        0
  8004  1930-26-14      3   50   33   0.280   0.290        0
  8005  2649-26-27     -2   38   48   0.280   0.360        0
  8006  2505-26-32      2   43   54   0.100  -0.410        0
  8007  2464-26-29      1   44   53   0.180   0.000        0
  8008  2388-26-32      1   46   56  -0.480   0.190        0
  8009  2412-26-20     -2   45   62   0.060  -0.090        0
  8010  2289-26-29      2   47   56  -0.490   0.150        0
  8011  2236-26-19      2   47   56   0.200   0.380        0
  8012  2183-26-29      2   48   54  -0.270   0.460        0
  8013  2215-26-104     2   47   74   0.420  -0.420        0
  8014  2162-26-102     2   48   68  -0.150   0.180        0
  8015  2130-26-69      1   48   63   0.080  -0.340        0
  8016  1990-26-67      2   50   63  -0.430   0.180        0
  8017  2103-26-67     -2   48   65   0.350   0.000        0
  8018  2055-26-102     1   49   65  -0.200   0.420        0
  8019  1997-26-183     1   50   69  -0.470   0.420        0
  8020  2339-26-104     2   46   75   0.080   0.460        0
  8021  2100-26-117     2   48   82   0.090   0.160        0
  8022  2010-26-75      1   49   75   0.370  -0.380        0
  8023  1428-26-1       3   58   24   0.140  -0.230        0
  8024  1383-26-8       3   60   25  -0.370   0.300        0
  8025  1819-26-1      -2   52   31  -0.470   0.240        0
  8026  1748-26-11     -2   52   31  -0.010   0.400        0
  8027  1702-26-11     -2   52   27   0.370  -0.120        0
  8028  1710-26-1      -2   52   27   0.410   0.470        0
  8029  1663-26-1      -2   53   27  -0.210   0.370        0
  8030  1612-26-11      2   54   32  -0.170  -0.110        0
  8031  1407-26-11     -2   59   34  -0.080   0.380        0
  8032  1364-26-11      2   60   31   0.410   0.480        0
  8033  1266-26-8      -2   62   31   0.360  -0.300        0
  8034  1336-26-11     -2   61   34  -0.090   0.380        0
  8035  1337-26-11     -2   61   32  -0.090   0.490        0
  8036  1264-26-1      -2   62   33   0.250  -0.420        0
  8037  1849-26-40     -2   51   62   0.290   0.170        0
  8038  1832-26-40      3   51   57   0.450   0.190        0
  8039  1690-26-33      2   53   59  -0.480   0.370        0
  8040  1691-26-1       2   53   58  -0.480   0.490        0
  8041  1417-26-60      2   59   62  -0.440   0.200        0
  8042  1386-26-34     -3   59   62   0.290   0.370        0
  8043  1329-26-35      2   61   58   0.170   0.170        0
  8044  1278-26-33      2   62   62   0.120   0.070        0
  8045  1879-26-69     -2   51   70  -0.020   0.200        0
  8046  1811-26-68     -2   52   69  -0.400  -0.390        0
  8047  1837-26-60      1   51   70   0.400  -0.120        0
  8048  1907-26-68      2   50   68   0.450   0.310        0
  8049  1888-26-68      2   51   66  -0.240   0.070        0
  8050  1779-26-67      1   52   66  -0.250  -0.250        0
  8051  1619-26-67     -2   54   65  -0.300  -0.490        0
  8052  1723-26-60      2   52   66   0.320  -0.480        0
  8053  1694-26-68     -2   53   68  -0.490   0.220        0
  8054  1658-26-67     -2   53   67   0.090  -0.150        0
  8055  1655-26-69     -2   53   70   0.090   0.040        0
  8056  1614-26-69      1   54   70  -0.220  -0.280        0
  8057  1596-26-69      1   54   71  -0.340  -0.210        0
  8058  1630-26-69      1   54   72  -0.490   0.060        0
  8059  1552-26-74      1   55   69  -0.080   0.070        0
  8060  1467-26-76      2   57   63   0.110   0.410        0
  8061  1470-26-74      2   57   66  -0.120  -0.020        0
  8062  1455-26-81      1   57   66   0.450  -0.020        0
  8063  1443-26-81      2   58   66  -0.430   0.010        0
  8064  1465-26-74      1   57   67   0.180  -0.210        0
  8065  1440-26-74     -2   57   68   0.260  -0.430        0
  8066  1474-26-75      1   57   70  -0.200   0.140        0
  8067  1453-26-71      1   57   69   0.370  -0.090        0
  8068  1488-26-70      2   57   74  -0.440   0.080        0
  8069  1502-26-71     -2   56   74   0.260  -0.350        0
  8070  1477-26-60      2   57   73  -0.240   0.100        0
  8071  1458-26-153     2   57   74   0.250  -0.410        0
  8072  1429-26-71     -2   58   74   0.100  -0.440        0
  8073  1397-26-71     -2   59   68   0.290   0.090        0
  8074  1416-26-76     -2   59   63  -0.320  -0.110        0
  8075  1312-26-88      1   61   66   0.320   0.440        0
  8076  1359-26-82     -2   60   73   0.200  -0.410        0
  8077  1333-26-82     -2   61   73  -0.230  -0.450        0
  8078  1295-26-84      1   62   73  -0.150  -0.020        0
  8079  1892-26-193    -2   51   83  -0.340   0.110        0
  8080  1940-26-109    -2   50   80   0.280  -0.400        0
  8081  1659-26-71     -2   53   76   0.120   0.090        0
  8082  1671-26-60     -2   53   75  -0.070   0.280        0
  8083  1627-26-70      2   54   76  -0.460  -0.100        0
  8084  1677-26-83      2   53   81  -0.080  -0.450        0
  8085  1602-26-83      2   54   80  -0.010  -0.270        0
  8086  1604-26-83      2   54   81  -0.010  -0.320        0
  8087  1669-26-109     2   53   85  -0.200  -0.230        0
  8088  1622-26-109     2   54   85  -0.400  -0.090        0
  8089  1553-26-88      2   55   84  -0.060  -0.230        0
  8090  1563-26-88      2   55   83  -0.290  -0.170        0
  8091  1586-26-84      2   54   81   0.490   0.170        0
  8092  1507-26-75      2   56   77   0.100   0.070        0
  8093  1495-26-60     -2   56   77   0.410   0.170        0
  8094  1484-26-75      2   57   77  -0.320  -0.250        0
  8095  1489-26-88      2   57   82  -0.410  -0.370        0
  8096  1464-26-88      2   57   83   0.010  -0.170        0
  8097  1414-26-95      2   59   85  -0.470   0.210        0
  8098  1395-26-88      2   59   79   0.390   0.000        0
  8099  1377-26-83      2   60   79   0.080  -0.260        0
  8100  1375-26-88      2   60   81   0.150  -0.470        0
  8101  1396-26-70      2   59   77   0.280  -0.350        0
  8102  1415-26-84      1   59   76  -0.450  -0.160        0
  8103  1300-26-213     2   62   83  -0.400   0.490        0
  8104  1276-26-95      2   62   84   0.130   0.470        0
  8105  1354-26-95      2   61   87  -0.480  -0.260        0
  8106  1358-26-95      3   61   87  -0.290  -0.350        0
  8107  846-26-13       3   73   19  -0.300  -0.090        0
  8108  833-26-13      -2   73   21   0.470   0.130        0
  8109  827-26-13      -2   74   22  -0.220   0.270        0
  8110  845-26-13       2   73   24  -0.360   0.190        0
  8111  1105-26-118     2   66   36   0.240   0.350        0
  8112  1120-26-13      2   66   38  -0.220  -0.250        0
  8113  1088-26-91      3   67   33  -0.460  -0.360        0
  8114  809-26-13       3   74   30   0.140  -0.080        0
  8115  1235-26-36     -2   63   61  -0.230  -0.290        0
  8116  1239-26-33     -3   63   60  -0.270  -0.140        0
  8117  1227-26-33     -2   63   59   0.420   0.470        0
  8118  1219-26-36     -3   63   60   0.390   0.190        0
  8119  1168-26-35      2   65   58  -0.240  -0.030        0
  8120  1140-26-35     -3   65   58   0.410  -0.220        0
  8121  1160-26-36     -2   65   60  -0.120   0.190        0
  8122  1121-26-36     -3   66   60  -0.240   0.120        0
  8123  1080-26-36      1   67   62  -0.320  -0.350        0
  8124  1048-26-36     -3   67   61   0.360  -0.030        0
  8125  1075-26-36     -3   67   60  -0.170  -0.010        0
  8126  1016-26-36      3   68   59  -0.020  -0.340        0
  8127  1011-26-36     -3   68   59   0.090  -0.020        0
  8128  1083-26-35      2   67   58  -0.360  -0.320        0
  8129  997-26-244      2   68   57   0.210  -0.170        0
  8130  910-26-166     -2   71   57  -0.500   0.190        0
  8131  1212-26-64      3   64   71  -0.430  -0.430        0
  8132  1131-26-349     2   66   63  -0.400  -0.140        0
  8133  1188-26-60      2   64   69   0.300  -0.250        0
  8134  1076-26-341    -2   67   72  -0.250  -0.350        0
  8135  1000-26-18      1   68   71   0.160  -0.460        0
  8136  1095-26-18      1   66   65   0.370   0.010        0
  8137  1035-26-61      1   68   65  -0.450  -0.190        0
  8138  1037-26-60      1   68   63  -0.480   0.020        0
  8139  878-26-60      -2   72   63  -0.310  -0.400        0
  8140  1250-26-84     -2   62   75   0.260   0.090        0
  8141  1251-26-84     -2   62   75   0.380  -0.300        0
  8142  1195-26-81     -2   64   76  -0.170   0.110        0
  8143  1110-26-62      1   66   76  -0.060   0.010        0
  8144  1044-26-82      2   67   82   0.270  -0.350        0
  8145  1017-26-62      2   69   76   0.110   0.110        0
  8146  973-26-95       2   69   85  -0.400   0.040        0
  8147  870-26-95       3   72   86  -0.190  -0.340        0
  8148  3417-26-95     -2   74   85  -0.010   0.310        0
  8149  1246-26-305     3   63   88  -0.490  -0.470        0
  8150  1593-26-18      2   67   89  -0.400  -0.090        0
  8151  757-26-141     -2   76   21   0.230  -0.240        0
  8152  758-26-1       -2   76   19   0.220  -0.260        0
  8153  722-26-64       2   78   17   0.200  -0.290        0
  8154  737-26-1        2   77   18   0.210  -0.240        0
  8155  656-26-1        2   82   15  -0.130   0.040        0
  8156  602-26-1        2   84   16   0.060   0.400        0
  8157  598-26-1        3   85   22  -0.430  -0.420        0
  8158  720-26-1        2   79   29  -0.460  -0.420        0
  8159  674-26-43      -2   81   64   0.410  -0.220        0
  8160  673-26-49      -2   81   67   0.440   0.490        0
  8161  810-26-43       2   74   63   0.250  -0.200        0
  8162  785-26-65       2   75   80   0.460   0.260        0
  8163  681-26-96       2   81   81  -0.070  -0.370        0
  8164  608-26-64      -2   84   82   0.020   0.400        0
  8165  559-26-60       2   85   85   0.320   0.460        0
  8166  731-26-98       3   78   92  -0.160  -0.130        0
  8167  683-26-91       3   81   91  -0.250   0.160        0
  8168  496-26-56       2   88   61   0.370   0.100        0
  8169  408-26-46       3   94   56  -0.160   0.440        0
  8170  391-26-72      -2   95   59   0.070  -0.370        0
  8171  451-26-85       3   91   85  -0.330   0.270        0
  8172  477-26-63       1   89   75   0.350   0.200        0
  8173  302-26-47       3  101   58  -0.160   0.040        0
  8174  295-26-47       3  101   58   0.380  -0.350        0
  8175  281-26-47       3  102   58   0.150  -0.160        0
  8176  270-26-41       3  103   58  -0.400  -0.350        0
  8177  278-26-11      -2  102   60   0.180   0.060        0
  8178  250-26-11      -2  104   61  -0.320  -0.020        0
  8179  3333-27-99      2    7   30   0.410   0.170        0
  8180  3176-27-347     2   18   20   0.330   0.350        0
  8181  3055-27-126     3   24   61   0.320  -0.330        0
  8182  2747-27-253     2   35   49   0.140   0.070        0
  8183  995-27-236     -2   68   34   0.340   0.360        0
  8184  778-27-348      2   75   77   0.270  -0.450        0
  8185  718-27-151     -2   79   84  -0.450  -0.470        0
  8186  3239-30-335     2   15   68   0.360   0.320        0
  8187  3181-30-185    -2   18   68   0.150  -0.170        0
  8188  3211-30-274     2   16   70   0.470   0.330        0
  8189  3189-30-181    -2   18   69  -0.120  -0.100        0
  8190  3198-30-274     2   17   70   0.420   0.100        0
  8191  3192-30-274     2   18   70  -0.380   0.170        0
  8192  3124-30-213     2   21   69   0.060   0.230        0
  8193  2832-30-108    -2   33   45  -0.420  -0.280        0
  8194  2673-30-244    -2   37   51   0.250  -0.470        0
  8195  2876-30-99     -2   31   56   0.320  -0.100        0
  8196  2774-30-91      2   35   58  -0.270   0.010        0
  8197  2733-30-27      2   36   52  -0.430   0.190        0
  8198  2603-30-29     -2   40   50   0.160   0.010        0
  8199  2652-30-27     -2   38   53   0.240  -0.480        0
  8200  2576-30-30      1   41   55  -0.270  -0.440        0
  8201  2542-30-30     -2   42   56   0.000  -0.460        0
  8202  2505-30-29      2   43   54   0.100  -0.410        0
  8203  2355-30-1      -2   46   51   0.010   0.340        0
  8204  2464-30-29      1   44   53   0.180   0.000        0
  8205  2357-30-30      2   46   54   0.090   0.100        0
  8206  2373-30-30     -3   46   55  -0.450   0.050        0
  8207  2446-30-30     -2   45   57  -0.360   0.450        0
  8208  2445-30-121     1   45   60  -0.480  -0.370        0
  8209  2237-30-34      2   47   60   0.160  -0.470        0
  8210  2137-30-35     -2   48   58   0.040  -0.450        0
  8211  2109-30-30      2   48   56   0.230  -0.240        0
  8212  2038-30-1       2   49   58  -0.350   0.360        0
  8213  2059-30-35     -2   49   59  -0.270   0.080        0
  8214  2227-30-273    -3   47   65   0.310  -0.300        0
  8215  2056-30-18      1   49   64  -0.190  -0.080        0
  8216  2019-30-111    -2   49   64   0.300   0.020        0
  8217  1998-30-244     1   50   68  -0.470   0.150        0
  8218  2086-30-14      2   48   70   0.460   0.360        0
  8219  2069-30-244    -2   49   72  -0.350  -0.180        0
  8220  2081-30-105     2   48   71   0.460   0.340        0
  8221  2246-30-335     2   47   76   0.000   0.210        0
  8222  2001-30-305     2   49   83   0.470   0.370        0
  8223  1617-30-121     1   54   61  -0.220   0.030        0
  8224  1391-30-43     -3   59   62   0.250   0.400        0
  8225  1427-30-11      1   58   59   0.410  -0.180        0
  8226  1400-30-42      2   59   60   0.140  -0.400        0
  8227  1619-30-57     -2   54   65  -0.300  -0.490        0
  8228  1693-30-51      1   52   72   0.470   0.090        0
  8229  1500-30-56     -2   56   65   0.270   0.130        0
  8230  1312-30-349     1   61   66   0.320   0.440        0
  8231  1874-30-1       2   51   86  -0.010   0.200        0
  8232  1857-30-157     1   51   83   0.150  -0.340        0
  8233  1843-30-213    -2   51   82   0.350  -0.250        0
  8234  1846-30-43     -2   52   78  -0.380   0.430        0
  8235  1676-30-79      2   53   82  -0.240   0.140        0
  8236  1574-30-246     2   55   85  -0.410  -0.030        0
  8237  1368-30-60     -2   60   77   0.310  -0.350        0
  8238  1366-30-43      2   60   79   0.350  -0.260        0
  8239  1348-30-43      2   61   81  -0.350   0.110        0
  8240  1320-30-335     2   61   84   0.140   0.430        0
  8241  1276-30-121     2   62   84   0.130   0.470        0
  8242  1751-30-305     2   52   91  -0.140  -0.410        0
  8243  1752-30-305     2   52   87  -0.130   0.080        0
  8244  1749-30-305     2   52   87  -0.090  -0.310        0
  8245  1754-30-130     1   52   88  -0.170  -0.370        0
  8246  812-30-6       -2   74   19   0.160   0.430        0
  8247  1235-30-43     -2   63   61  -0.230  -0.290        0
  8248  1197-30-43      1   64   67   0.070   0.090        0
  8249  1187-30-182    -3   64   70   0.300  -0.050        0
  8250  1194-30-1       2   64   75   0.180  -0.330        0
  8251  529-30-351     -2   86   63   0.500  -0.490        0
  8252  686-30-127     -3   81   63  -0.400  -0.140        0
  8253  488-30-44       3   89   60  -0.480   0.390        0
  8254  485-30-351     -2   89   58  -0.320   0.400        0
  8255  476-30-60       3   89   62   0.400  -0.010        0
  8256  408-30-349      3   94   56  -0.160   0.440        0
  8257  402-30-213      3   94   58   0.380  -0.030        0
  8258  366-30-42       2   96   68   0.170   0.420        0
  8259  301-30-342      3  101   58  -0.120   0.460        0
  8260  270-30-342      3  103   58  -0.400  -0.350        0
  8261  3376-31-2       2    7   14  -0.080  -0.350        0
  8262  3351-31-101     2    6   20  -0.490  -0.230        0
  8263  3272-31-104     3   12   67  -0.010   0.340        0
  8264  3145-31-193    -2   20   24   0.290   0.300        0
  8265  3161-31-244     2   20   28  -0.190   0.450        0
  8266  3038-31-1      -3   25   35   0.140  -0.430        0
  8267  3243-31-1       2   15   68   0.130   0.320        0
  8268  3256-31-104    -2   15   67  -0.440  -0.300        0
  8269  3208-31-273    -2   17   67  -0.260  -0.460        0
  8270  3153-31-348    -2   20   69   0.140  -0.390        0
  8271  3164-31-283    -2   20   70  -0.430  -0.450        0
  8272  3093-31-104     2   23   68  -0.290  -0.200        0
  8273  2787-31-57      2   34   24   0.410   0.000        0
  8274  2734-31-1      -2   36   18  -0.490   0.480        0
  8275  2823-31-196     2   32   29  -0.330   0.270        0
  8276  2927-31-29     -3   29   42   0.090  -0.390        0
  8277  2743-31-220     2   35   50   0.180   0.180        0
  8278  2756-31-252    -2   35   48  -0.090  -0.230        0
  8279  2699-31-1       2   36   50   0.290  -0.310        0
  8280  2687-31-266    -2   37   49  -0.130  -0.090        0
  8281  2615-31-1       2   40   32  -0.360   0.240        0
  8282  2650-31-60      2   38   47   0.200   0.120        0
  8283  2558-31-121    -2   41   50   0.300  -0.440        0
  8284  2475-31-120    -2   44   55  -0.130   0.050        0
  8285  2460-31-120    -2   44   55   0.250   0.340        0
  8286  2427-31-120    -2   45   58  -0.360   0.040        0
  8287  2326-31-121    -3   46   62   0.240  -0.260        0
  8288  2212-31-121    -2   48   60  -0.420  -0.470        0
  8289  1991-31-36     -2   50   56  -0.390   0.310        0
  8290  1958-31-36     -2   50   57  -0.010   0.100        0
  8291  2057-31-121     2   49   60  -0.160   0.180        0
  8292  1951-31-36     -2   50   62   0.070   0.140        0
  8293  2014-31-121     1   49   66   0.340   0.000        0
  8294  1974-31-120     1   50   66  -0.160  -0.030        0
  8295  2102-31-119    -2   48   70   0.340  -0.260        0
  8296  2054-31-91     -2   49   70  -0.200  -0.350        0
  8297  2339-31-78      2   46   75   0.080   0.460        0
  8298  2330-31-196     2   46   82   0.180  -0.460        0
  8299  2100-31-78      2   48   82   0.090   0.160        0
  8300  2043-31-211    -2   49   79  -0.020   0.370        0
  8301  1849-31-1      -2   51   62   0.290   0.170        0
  8302  1471-31-113    -2   57   59  -0.270   0.440        0
  8303  1461-31-40     -2   57   62   0.260   0.500        0
  8304  1321-31-40      2   61   60   0.170   0.350        0
  8305  1306-31-113    -2   61   60   0.400  -0.400        0
  8306  1307-31-113     2   61   59   0.360   0.210        0
  8307  1305-31-121     2   62   61  -0.490   0.260        0
  8308  1886-31-119     1   51   71  -0.210   0.110        0
  8309  1879-31-119    -2   51   70  -0.020   0.200        0
  8310  1779-31-119     1   52   66  -0.250  -0.250        0
  8311  1724-31-118     2   52   65   0.360   0.130        0
  8312  1694-31-119    -2   53   68  -0.490   0.220        0
  8313  1695-31-120     2   52   68   0.480  -0.330        0
  8314  1596-31-119     1   54   71  -0.340  -0.210        0
  8315  1683-31-68     -2   53   74  -0.420   0.170        0
  8316  1552-31-117     1   55   69  -0.080   0.070        0
  8317  1533-31-118     1   55   67   0.350  -0.310        0
  8318  1813-31-117     2   55   66   0.460   0.040        0
  8319  1538-31-117    -2   55   66   0.310  -0.280        0
  8320  1470-31-117     2   57   66  -0.120  -0.020        0
  8321  1453-31-117     1   57   69   0.370  -0.090        0
  8322  1502-31-120    -2   56   74   0.260  -0.350        0
  8323  1416-31-62     -2   59   63  -0.320  -0.110        0
  8324  1784-31-148    -2   52   76  -0.260  -0.240        0
  8325  1659-31-114    -2   53   76   0.120   0.090        0
  8326  1671-31-114    -2   53   75  -0.070   0.280        0
  8327  1602-31-114     2   54   80  -0.010  -0.270        0
  8328  1507-31-114     2   56   77   0.100   0.070        0
  8329  1514-31-114    -2   56   76  -0.090   0.320        0
  8330  1495-31-69     -2   56   77   0.410   0.170        0
  8331  1484-31-114     2   57   77  -0.320  -0.250        0
  8332  1483-31-114     2   57   80  -0.220   0.230        0
  8333  1239-31-113    -3   63   60  -0.270  -0.140        0
  8334  1234-31-113    -3   63   59  -0.420   0.470        0
  8335  1099-31-117    -3   66   63   0.330  -0.340        0
  8336  853-31-118      2   72   63   0.340  -0.300        0
  8337  720-31-1        2   79   29  -0.460  -0.420        0
  8338  729-31-118     -2   78   64   0.080  -0.360        0
  8339  679-31-118     -2   81   66   0.020  -0.500        0
  8340  810-31-118      2   74   63   0.250  -0.200        0
  8341  299-31-59      -2  101   60  -0.040   0.360        0
  8342  3281-32-351     2   11   16   0.350  -0.460        0
  8343  3347-32-97      3    6   64  -0.200  -0.130        0
  8344  3051-32-152    -2   24   20   0.220  -0.290        0
  8345  3004-32-94     -2   26   46   0.110   0.130        0
  8346  2997-32-94      2   26   56   0.230  -0.360        0
  8347  3016-32-94      2   26   58  -0.270  -0.350        0
  8348  3055-32-94      3   24   61   0.320  -0.330        0
  8349  2880-32-95      2   31   50   0.240  -0.210        0
  8350  2883-32-196     2   31   47   0.160  -0.460        0
  8351  2977-32-96     -2   27   60   0.460  -0.140        0
  8352  2914-32-96      2   30   52  -0.020   0.490        0
  8353  2930-32-96      2   30   61  -0.440  -0.430        0
  8354  2869-32-96      2   32   62  -0.410   0.190        0
  8355  2898-32-96      2   31   52  -0.480   0.190        0
  8356  2841-32-96      2   32   57   0.310  -0.290        0
  8357  2742-32-95      2   36   54   0.370   0.500        0
  8358  2956-32-95      2   28   65   0.260  -0.110        0
  8359  2441-32-216     3   45   20  -0.310   0.430        0
  8360  2477-32-137     3   44   27  -0.200   0.450        0
  8361  2334-32-335     2   46   71   0.240  -0.150        0
  8362  2314-32-342     2   46   69   0.280   0.420        0
  8363  2331-32-29      2   46   77   0.190  -0.240        0
  8364  2128-32-154     1   48   76   0.070  -0.440        0
  8365  2092-32-154     1   48   76   0.410  -0.400        0
  8366  2085-32-154     1   48   78   0.450   0.070        0
  8367  1278-32-50      2   62   62   0.120   0.070        0
  8368  1791-32-119    -2   52   72  -0.250  -0.010        0
  8369  1131-32-62      2   66   63  -0.400  -0.140        0
  8370  1035-32-71      1   68   65  -0.450  -0.190        0
  8371  2799-35-122    -2   34   44   0.030   0.500        0
  8372  861-35-329      2   72   31   0.200   0.390        0
  8373  3038-36-52     -3   25   35   0.140  -0.430        0
  8374  2937-36-86     -2   29   37   0.120   0.130        0
  8375  1428-36-91      3   58   24   0.140  -0.230        0
  8376  1106-36-164     3   66   37   0.310  -0.480        0
  8377  727-36-333     -2   78   79   0.060  -0.400        0
  8378  492-36-108      3   88   61   0.410   0.400        0
  8379  380-36-78      -2   96   63  -0.470  -0.460        0
  8380  3318-37-364    -2    8   24   0.430  -0.450        0
  8381  2476-37-182     2   44   60   0.060   0.090        0
  8382  2437-37-1       2   45   60  -0.440   0.440        0
  8383  1436-37-201     2   57   71   0.220   0.120        0
  8384  974-37-342      3   69   60  -0.370   0.450        0
  8385  981-37-84       2   68   83   0.110  -0.470        0
  8386  814-37-58       2   74   81   0.120  -0.480        0
  8387  697-37-41      -2   80   85  -0.150  -0.360        0
  8388  659-37-16      -3   82   78   0.040   0.380        0
1
                            STRESS PERIOD NO.    1, LENGTH =   366.0000    
                            -----------------------------------------------

                              NUMBER OF TIME STEPS =     1

                               MULTIPLIER FOR DELT =     1.000

                            INITIAL TIME STEP SIZE =   366.0000    

 WELL NO.  LAYER   ROW   COL   STRESS RATE         
 --------------------------------------------------
      1      3      1     64       239.0    
      2      3      1     65       835.0    
      3      3      1     66       835.0    

      3 WELLS



                         ET SURFACE
 READING ON UNIT   14 WITH FORMAT: (15F5.0)            



            EVAPOTRANSPIRATION RATE
 READING ON UNIT   14 WITH FORMAT: (15F5.0)            



                   EXTINCTION DEPTH
 READING ON UNIT   14 WITH FORMAT: (15F3.0)            



                           RECHARGE
 READING ON UNIT   16 WITH FORMAT: (15F5.0)            


     63 TIME-VARIANT SPECIFIED-HEAD CELLS

 SOLVING FOR HEAD 
                                                   Max.-Head-Change                        Max.-Flux-Residual
  Residual-Control   Outer-Iter.   Inner-Iter.     Column Row Layer    Max.-Head-Change    Column Row Layer    Max.-Flux-Residual            L2-New               L2-Old           Solver-Max-Delh
          0                 1          60            23   84     2      -0.5965470420E+03      84   63    2      -0.1078220100E+07      0.2964179547E+07      0.0000000000E+00     -0.5965470420E+03
          1                 1           0            23   84     2      -0.5368923236E+03      21   69    3      -0.3288544268E+07      0.7209720662E+07      0.2964179547E+07     -0.5965470420E+03
          0                 2          60            24   83     2      -0.3341063814E+03      21   69    3      -0.2277531139E+07      0.5416737675E+07      0.7209720662E+07     -0.3341063814E+03
          1                 2           0            24   83     2      -0.3006957353E+03      17   74    3      -0.5976374303E+07      0.2344443197E+08      0.5416737675E+07     -0.3341063814E+03
          2                 2           0            24   83     2      -0.2706261546E+03      17   74    2       0.4723925648E+07      0.1766380457E+08      0.2344443197E+08     -0.3341063814E+03
          3                 2           0            24   83     2      -0.2435635327E+03      17   74    2       0.4146157459E+07      0.1296587691E+08      0.1766380457E+08     -0.3341063814E+03
          0                 3          60            23   67     2       0.1060421308E+05      17   74    2       0.3626166102E+07      0.9286463531E+07      0.1296587691E+08      0.1060421308E+05
          1                 3           0            23   67     2       0.9543791519E+04      60   74    1      -0.5493313453E+08      0.1132692027E+09      0.9286463531E+07      0.1060421308E+05
          2                 3           0            23   67     2       0.8589412140E+04      60   74    1      -0.4935192190E+08      0.1017508718E+09      0.1132692027E+09      0.1060421308E+05
          3                 3           0            23   67     2       0.7730470721E+04      60   74    1      -0.4432883067E+08      0.9109897400E+08      0.1017508718E+09      0.1060421308E+05
                                                   Max.-Head-Change                        Max.-Flux-Residual
  Residual-Control   Outer-Iter.   Inner-Iter.     Column Row Layer    Max.-Head-Change    Column Row Layer    Max.-Flux-Residual            L2-New               L2-Old           Solver-Max-Delh
          4                 3           0            23   67     2       0.6957423465E+04      60   74    1      -0.3980804869E+08      0.8166129861E+08      0.9109897400E+08      0.1060421308E+05
          5                 3           0            23   67     2       0.6261680952E+04      60   74    1      -0.3573934501E+08      0.7329412074E+08      0.8166129861E+08      0.1060421308E+05
          6                 3           0            23   67     2       0.5635512708E+04      60   74    1      -0.3207751179E+08      0.6587742694E+08      0.7329412074E+08      0.1060421308E+05
          7                 3           0            23   67     2       0.5071961303E+04      60   74    1      -0.2878186199E+08      0.5924393118E+08      0.6587742694E+08      0.1060421308E+05
          8                 3           0            23   67     2       0.4564765051E+04      60   74    1      -0.2581577724E+08      0.5317642672E+08      0.5924393118E+08      0.1060421308E+05
          9                 3           0            23   67     2       0.4108288437E+04      60   74    1      -0.2314630104E+08      0.4767865912E+08      0.5317642672E+08      0.1060421308E+05
         10                 3           0            23   67     2       0.3697459496E+04      60   74    1      -0.2074377252E+08      0.4257497035E+08      0.4767865912E+08      0.1060421308E+05
         11                 3           0            23   67     2       0.3327713458E+04      60   74    1      -0.1858149691E+08      0.3811831482E+08      0.4257497035E+08      0.1060421308E+05
         12                 3           0            23   67     2       0.2994942033E+04      60   74    1      -0.1663544892E+08      0.3422777235E+08      0.3811831482E+08      0.1060421308E+05
         13                 3           0            23   67     2       0.2695447758E+04      23   67    1      -0.1452805333E+08      0.3036252866E+08      0.3422777235E+08      0.1060421308E+05
                                                   Max.-Head-Change                        Max.-Flux-Residual
  Residual-Control   Outer-Iter.   Inner-Iter.     Column Row Layer    Max.-Head-Change    Column Row Layer    Max.-Flux-Residual            L2-New               L2-Old           Solver-Max-Delh
         14                 3           0            23   67     2       0.2425902918E+04      23   67    1      -0.1307463105E+08      0.2668974139E+08      0.3036252866E+08      0.1060421308E+05
         15                 3           0            23   67     2       0.2183312568E+04      23   67    1      -0.1176655103E+08      0.2368292883E+08      0.2668974139E+08      0.1060421308E+05
         16                 3           0            23   67     2       0.1964981260E+04      23   67    1      -0.1058927905E+08      0.2120344859E+08      0.2368292883E+08      0.1060421308E+05
         17                 3           0            23   67     2       0.1768483087E+04      23   67    1      -0.9529734286E+07      0.1914790275E+08      0.2120344859E+08      0.1060421308E+05
          0                 4          60            23   67     3      -0.1648386597E+04      23   67    1      -0.8576144027E+07      0.1740462739E+08      0.1914790275E+08     -0.1648386597E+04
          0                 5          60            62   97     1      -0.1513979894E+03      60   74    1      -0.1305206205E+07      0.2412761768E+07      0.1740462739E+08     -0.1513979894E+03
          0                 6          60            61   81     1       0.1690853865E+03      55   88    3      -0.3475199636E+06      0.1052611033E+07      0.2412761768E+07      0.1690853865E+03
          0                 7          60            55   79     1      -0.2424871974E+03      61   78    1      -0.5560500746E+06      0.1873291161E+07      0.1052611033E+07     -0.2424871974E+03
          1                 7           0            55   79     1      -0.2182384718E+03      55   88    2       0.9090985907E+06      0.3849279361E+07      0.1873291161E+07     -0.2424871974E+03
          0                 8          60            55   78     2       0.5537052284E+03      55   88    2       0.7089611975E+06      0.2921010602E+07      0.3849279361E+07      0.5537052284E+03
                                                   Max.-Head-Change                        Max.-Flux-Residual
  Residual-Control   Outer-Iter.   Inner-Iter.     Column Row Layer    Max.-Head-Change    Column Row Layer    Max.-Flux-Residual            L2-New               L2-Old           Solver-Max-Delh
          1                 8           0            55   78     2       0.4983346923E+03      60   72    1      -0.9138506728E+07      0.1344222622E+08      0.2921010602E+07      0.5537052284E+03
          2                 8           0            55   78     2       0.4485012112E+03      60   72    1      -0.8096456484E+07      0.1156461447E+08      0.1344222622E+08      0.5537052284E+03
          3                 8           0            55   78     2       0.4036510794E+03      60   72    1      -0.7158611288E+07      0.9884392658E+07      0.1156461447E+08      0.5537052284E+03
          4                 8           0            55   78     2       0.3632859618E+03      60   72    1      -0.5826078367E+07      0.8075556760E+07      0.9884392658E+07      0.5537052284E+03
          5                 8           0            55   78     2       0.3269573570E+03      60   72    1      -0.4698166219E+07      0.6606771411E+07      0.8075556760E+07      0.5537052284E+03
          0                 9          60            60   72     1      -0.1725966179E+03      60   72    1      -0.3787251022E+07      0.5455228623E+07      0.6606771411E+07     -0.1725966179E+03
          0                10          60            55   75     1       0.2008147768E+03      60   72    1      -0.1634307104E+07      0.2326969034E+07      0.5455228623E+07      0.2008147768E+03
          0                11          60            59   73     1      -0.1409551403E+03      60   78    1      -0.1500711818E+07      0.3516852355E+07      0.2326969034E+07     -0.1409551403E+03
          0                12          60            55   76     1       0.1306202459E+03      60   78    1      -0.7509032240E+06      0.1775186510E+07      0.3516852355E+07      0.1306202459E+03
          0                13          60            59   73     1      -0.7573603168E+02      60   74    1      -0.3909290082E+06      0.1130468471E+07      0.1775186510E+07     -0.7573603168E+02
                                                   Max.-Head-Change                        Max.-Flux-Residual
  Residual-Control   Outer-Iter.   Inner-Iter.     Column Row Layer    Max.-Head-Change    Column Row Layer    Max.-Flux-Residual            L2-New               L2-Old           Solver-Max-Delh
          0                14          60            59   74     1       0.4479452845E+02      60   75    1       0.2146155947E+06      0.5556256045E+06      0.1130468471E+07      0.4479452845E+02
          0                15          60            86   85     2      -0.1139883156E+02      60   74    1      -0.1916600962E+06      0.6183463489E+06      0.5556256045E+06     -0.1139883156E+02
          0                16          60            86   85     2      -0.6203675938E+01      60   74    1      -0.1240310026E+06      0.3542853807E+06      0.6183463489E+06     -0.6203675938E+01
          0                17          60            85   63     1       0.3751685922E+01      60   74    1      -0.8043207339E+05      0.2286931352E+06      0.3542853807E+06      0.3751685922E+01
          0                18          60            85   63     1       0.2384540524E+01      60   74    1      -0.5207618304E+05      0.1475947152E+06      0.2286931352E+06      0.2384540524E+01
          0                19          60            85   63     1       0.1471845062E+01      60   74    1      -0.3367860415E+05      0.9519536844E+05      0.1475947152E+06      0.1471845062E+01
          0                20          60            85   63     1       0.9048930402E+00      60   74    1      -0.2176279924E+05      0.6160546688E+05      0.9519536844E+05      0.9048930402E+00
          0                21          60            85   86     2      -0.5806225152E+00      60   74    1      -0.1405461622E+05      0.3985329860E+05      0.6160546688E+05     -0.5806225152E+00
          0                22          60            85   86     2      -0.3747283082E+00      60   74    1      -0.9072580547E+04      0.2576207585E+05      0.3985329860E+05     -0.3747283082E+00
          0                23          60            85   86     2      -0.2419828818E+00      60   74    1      -0.5854548785E+04      0.1666420793E+05      0.2576207585E+05     -0.2419828818E+00
                                                   Max.-Head-Change                        Max.-Flux-Residual
  Residual-Control   Outer-Iter.   Inner-Iter.     Column Row Layer    Max.-Head-Change    Column Row Layer    Max.-Flux-Residual            L2-New               L2-Old           Solver-Max-Delh
          0                24          60            85   86     2      -0.1561231924E+00      60   74    1      -0.3776899941E+04      0.1078807443E+05      0.1666420793E+05     -0.1561231924E+00
          0                25          60            85   86     2      -0.1007730853E+00      60   74    1      -0.2435990826E+04      0.6990394210E+04      0.1078807443E+05     -0.1007730853E+00
          0                26          60            85   86     2      -0.6503501808E-01      60   74    1      -0.1570818877E+04      0.4533560428E+04      0.6990394210E+04     -0.6503501808E-01
          0                27          60            85   86     2      -0.4196402513E-01      60   74    1      -0.1012732519E+04      0.2942781152E+04      0.4533560428E+04     -0.4196402513E-01
          0                28          60            85   86     2      -0.2707300855E-01      60   74    1      -0.6528098289E+03      0.1911864854E+04      0.2942781152E+04     -0.2707300855E-01
          0                29          60            85   86     2      -0.1746330817E-01      60   74    1      -0.4207316640E+03      0.1243186200E+04      0.1911864854E+04     -0.1746330817E-01
          0                30          60            85   86     2      -0.1126283799E-01      60   74    1      -0.2711142993E+03      0.8090840298E+03      0.1243186200E+04     -0.1126283799E-01
          0                31          60            85   86     2      -0.7262747239E-02      60   74    1      -0.1746745906E+03      0.5270210462E+03      0.8090840298E+03     -0.7262747239E-02

    ------------------------------------------------
       NWT REQUIRED           31 OUTER ITERATIONS 
       AND A TOTAL OF       1860 INNER ITERATIONS.
    ------------------------------------------------

 OUTPUT CONTROL FOR STRESS PERIOD    1   TIME STEP    1
    SAVE BUDGET
    SAVE HEAD FOR LAYERS:   1  2  3
 UBDSV2 SAVING "   CONSTANT HEAD" ON UNIT  39 AT TIME STEP  1, STRESS PERIOD   1
 UBDSV1 SAVING "FLOW RIGHT FACE " ON UNIT  39 AT TIME STEP  1, STRESS PERIOD   1
 UBDSV1 SAVING "FLOW FRONT FACE " ON UNIT  39 AT TIME STEP  1, STRESS PERIOD   1
 UBDSV1 SAVING "FLOW LOWER FACE " ON UNIT  39 AT TIME STEP  1, STRESS PERIOD   1
 UBDSV3 SAVING "              ET" ON UNIT  39 AT TIME STEP  1, STRESS PERIOD   1
 UBDSV3 SAVING "        RECHARGE" ON UNIT  39 AT TIME STEP  1, STRESS PERIOD   1

 INTERPOLATION FOR HEAD OBS# 1758, ID 2574-1-107   CHANGED BECAUSE AT LEAST ONE
 NEIGHBORING CELL REQUIRED FOR INTERPOLATION IS DRY OR INACTIVE (OBS2BAS7SE)

 INTERPOLATION FOR HEAD OBS# 3654, ID 1891-1-365   CHANGED BECAUSE AT LEAST ONE
 NEIGHBORING CELL REQUIRED FOR INTERPOLATION IS DRY OR INACTIVE (OBS2BAS7SE)

 INTERPOLATION FOR HEAD OBS# 3781, ID 1282-1-277   CHANGED BECAUSE AT LEAST ONE
 NEIGHBORING CELL REQUIRED FOR INTERPOLATION IS DRY OR INACTIVE (OBS2BAS7SE)

 HEAD WILL BE SAVED ON UNIT   31 AT END OF TIME STEP    1, STRESS PERIOD    1
1
  VOLUMETRIC BUDGET FOR ENTIRE MODEL AT END OF TIME STEP    1, STRESS PERIOD   1
  ------------------------------------------------------------------------------

     CUMULATIVE VOLUMES      L**3       RATES FOR THIS TIME STEP      L**3/T
     ------------------                 ------------------------

           IN:                                      IN:
           ---                                      ---
             STORAGE =           0.0000               STORAGE =           0.0000
       CONSTANT HEAD =   409182272.0000         CONSTANT HEAD =     1117984.3750
               WELLS =      698694.0000                 WELLS =        1909.0000
                  ET =           0.0000                    ET =           0.0000
            RECHARGE =  3744436224.0000              RECHARGE =    10230700.0000

            TOTAL IN =  4154317312.0000              TOTAL IN =    11350593.0000

          OUT:                                     OUT:
          ----                                     ----
             STORAGE =           0.0000               STORAGE =           0.0000
       CONSTANT HEAD =  1461960320.0000         CONSTANT HEAD =     3994427.2500
               WELLS =           0.0000                 WELLS =           0.0000
                  ET =  2692743680.0000                    ET =     7357223.0000
            RECHARGE =           0.0000              RECHARGE =           0.0000

           TOTAL OUT =  4154703872.0000             TOTAL OUT =    11351650.0000

            IN - OUT =     -386560.0000              IN - OUT =       -1057.0000

 PERCENT DISCREPANCY =          -0.01     PERCENT DISCREPANCY =          -0.01






         TIME SUMMARY AT END OF TIME STEP    1 IN STRESS PERIOD    1
                    SECONDS     MINUTES      HOURS       DAYS        YEARS
                    -----------------------------------------------------------
   TIME STEP LENGTH 3.16224E+07 5.27040E+05  8784.0      366.00      1.0021    
 STRESS PERIOD TIME 3.16224E+07 5.27040E+05  8784.0      366.00      1.0021    
         TOTAL TIME 3.16224E+07 5.27040E+05  8784.0      366.00      1.0021    
1
 A TOTAL OF 109 HYDROGRAPH POINTS HAVE BEEN PREPARED.
1
                            STRESS PERIOD NO.    2, LENGTH =   365.0000    
                            -----------------------------------------------

                              NUMBER OF TIME STEPS =    12

                               MULTIPLIER FOR DELT =     1.000

                            INITIAL TIME STEP SIZE =   30.41667    

 WELL NO.  LAYER   ROW   COL   STRESS RATE         
 --------------------------------------------------
      1      3      1     68       835.0    
      2      3      1     69       835.0    
      3      3      1     70       835.0    

      3 WELLS

 REUSING SURF FROM LAST STRESS PERIOD

 REUSING EVTR FROM LAST STRESS PERIOD

 REUSING EXDP FROM LAST STRESS PERIOD



                           RECHARGE
 READING ON UNIT   16 WITH FORMAT: (15F5.0)            


     63 TIME-VARIANT SPECIFIED-HEAD CELLS

 SOLVING FOR HEAD 
                                                   Max.-Head-Change                        Max.-Flux-Residual
  Residual-Control   Outer-Iter.   Inner-Iter.     Column Row Layer    Max.-Head-Change    Column Row Layer    Max.-Flux-Residual            L2-New               L2-Old           Solver-Max-Delh
          0                 1          10            77   46     1       0.1448864095E+02      72   48    1       0.1321104883E+06      0.5229301475E+06      0.5270210462E+03      0.1448864095E+02
          0                 2           9            77   46     1      -0.1120549299E+02      77   46    1      -0.4278832919E+06      0.4312250416E+06      0.5229301475E+06     -0.1120549299E+02
          0                 3           4            78   46     1       0.9144712392E-01      77   46    1      -0.7190763107E+03      0.8757097045E+03      0.4312250416E+06      0.9144712392E-01
          0                 4           2            78   46     1       0.9014031074E-02      78   46    1       0.3633379390E+02      0.4612116716E+02      0.8757097045E+03      0.9014031074E-02

    ------------------------------------------------
       NWT REQUIRED            4 OUTER ITERATIONS 
       AND A TOTAL OF         25 INNER ITERATIONS.
    ------------------------------------------------

 NO OUTPUT CONTROL FOR STRESS PERIOD    2   TIME STEP    1

 INTERPOLATION FOR HEAD OBS# 1009, ID 2643-2-60    CHANGED BECAUSE AT LEAST ONE
 NEIGHBORING CELL REQUIRED FOR INTERPOLATION IS DRY OR INACTIVE (OBS2BAS7SE)

 SOLVING FOR HEAD 
                                                   Max.-Head-Change                        Max.-Flux-Residual
  Residual-Control   Outer-Iter.   Inner-Iter.     Column Row Layer    Max.-Head-Change    Column Row Layer    Max.-Flux-Residual            L2-New               L2-Old           Solver-Max-Delh
          0                 1          10            81   45     1       0.3039141380E+01      72   48    1       0.1088490220E+06      0.4018252006E+06      0.4612116716E+02      0.3039141380E+01
          0                 2           9            81   45     1      -0.2766571052E+00      72   48    1      -0.1098386195E+05      0.4178580359E+05      0.4018252006E+06     -0.2766571052E+00
          0                 3           4            64   27     2       0.1156319064E-02      74   49    1      -0.3404569668E+02      0.5516943699E+02      0.4178580359E+05      0.1156319064E-02

    ------------------------------------------------
       NWT REQUIRED            3 OUTER ITERATIONS 
       AND A TOTAL OF         23 INNER ITERATIONS.
    ------------------------------------------------

 NO OUTPUT CONTROL FOR STRESS PERIOD    2   TIME STEP    2

 SOLVING FOR HEAD 
                                                   Max.-Head-Change                        Max.-Flux-Residual
  Residual-Control   Outer-Iter.   Inner-Iter.     Column Row Layer    Max.-Head-Change    Column Row Layer    Max.-Flux-Residual            L2-New               L2-Old           Solver-Max-Delh
          0                 1          10            81   45     1       0.2660657757E+01      72   48    1       0.9036050853E+05      0.3351687016E+06      0.5516943699E+02      0.2660657757E+01
          0                 2           9            81   45     1      -0.2421528097E+00      72   48    1      -0.9878026098E+04      0.3375228452E+05      0.3351687016E+06     -0.2421528097E+00
          0                 3           4            84   53     1      -0.3392895053E-03      20   73    3       0.1389696393E+01      0.3726518934E+01      0.3375228452E+05     -0.3392895053E-03

    ------------------------------------------------
       NWT REQUIRED            3 OUTER ITERATIONS 
       AND A TOTAL OF         23 INNER ITERATIONS.
    ------------------------------------------------

 NO OUTPUT CONTROL FOR STRESS PERIOD    2   TIME STEP    3

 INTERPOLATION FOR HEAD OBS# 6236, ID 1164-2-93    CHANGED BECAUSE AT LEAST ONE
 NEIGHBORING CELL REQUIRED FOR INTERPOLATION IS DRY OR INACTIVE (OBS2BAS7SE)

 SOLVING FOR HEAD 
                                                   Max.-Head-Change                        Max.-Flux-Residual
  Residual-Control   Outer-Iter.   Inner-Iter.     Column Row Layer    Max.-Head-Change    Column Row Layer    Max.-Flux-Residual            L2-New               L2-Old           Solver-Max-Delh
          0                 1          10            81   45     1       0.2330692449E+01      81   46    1       0.7557223223E+05      0.2900129780E+06      0.3726518934E+01      0.2330692449E+01
          0                 2           9            81   45     1      -0.2129582529E+00      81   46    1      -0.7563723927E+04      0.2913427568E+05      0.2900129780E+06     -0.2129582529E+00
          0                 3           4            84   53     1      -0.3454089322E-03      91   67    1      -0.1017274026E+01      0.2842543024E+01      0.2913427568E+05     -0.3454089322E-03

    ------------------------------------------------
       NWT REQUIRED            3 OUTER ITERATIONS 
       AND A TOTAL OF         23 INNER ITERATIONS.
    ------------------------------------------------

 NO OUTPUT CONTROL FOR STRESS PERIOD    2   TIME STEP    4

 SOLVING FOR HEAD 
                                                   Max.-Head-Change                        Max.-Flux-Residual
  Residual-Control   Outer-Iter.   Inner-Iter.     Column Row Layer    Max.-Head-Change    Column Row Layer    Max.-Flux-Residual            L2-New               L2-Old           Solver-Max-Delh
          0                 1          10            81   45     1       0.2040681256E+01      81   46    1       0.6760242282E+05      0.2565855104E+06      0.2842543024E+01      0.2040681256E+01
          0                 2           9            81   45     1      -0.1856201567E+00      72   48    1      -0.6320434564E+04      0.2526284980E+05      0.2565855104E+06     -0.1856201567E+00
          0                 3           3            84   53     1      -0.3491574037E-03      91   67    1      -0.9772438221E+00      0.2681145826E+01      0.2526284980E+05     -0.3491574037E-03

    ------------------------------------------------
       NWT REQUIRED            3 OUTER ITERATIONS 
       AND A TOTAL OF         22 INNER ITERATIONS.
    ------------------------------------------------

 NO OUTPUT CONTROL FOR STRESS PERIOD    2   TIME STEP    5

 SOLVING FOR HEAD 
                                                   Max.-Head-Change                        Max.-Flux-Residual
  Residual-Control   Outer-Iter.   Inner-Iter.     Column Row Layer    Max.-Head-Change    Column Row Layer    Max.-Flux-Residual            L2-New               L2-Old           Solver-Max-Delh
          0                 1          10            81   46     1       0.1889730030E+01      81   46    1       0.6070699247E+05      0.2308610281E+06      0.2681145826E+01      0.1889730030E+01
          0                 2           9            81   46     1      -0.1719134524E+00      81   46    1      -0.6075983728E+04      0.2293628311E+05      0.2308610281E+06     -0.1719134524E+00
          0                 3           3            80   45     1      -0.3773792795E-03      66   43    2      -0.1096299043E+01      0.2835292352E+01      0.2293628311E+05     -0.3773792795E-03

    ------------------------------------------------
       NWT REQUIRED            3 OUTER ITERATIONS 
       AND A TOTAL OF         22 INNER ITERATIONS.
    ------------------------------------------------

 NO OUTPUT CONTROL FOR STRESS PERIOD    2   TIME STEP    6

 SOLVING FOR HEAD 
                                                   Max.-Head-Change                        Max.-Flux-Residual
  Residual-Control   Outer-Iter.   Inner-Iter.     Column Row Layer    Max.-Head-Change    Column Row Layer    Max.-Flux-Residual            L2-New               L2-Old           Solver-Max-Delh
          0                 1          10            81   46     1       0.1837381738E+01      81   46    1       0.5907386686E+05      0.2117569590E+06      0.2835292352E+01      0.1837381738E+01
          0                 2           9            81   46     1      -0.1671530631E+00      81   46    1      -0.5912599661E+04      0.2119445623E+05      0.2117569590E+06     -0.1671530631E+00
          0                 3           4            80   45     1      -0.4034483934E-03      53   42    1       0.1608132496E+02      0.1628729149E+02      0.2119445623E+05     -0.4034483934E-03

    ------------------------------------------------
       NWT REQUIRED            3 OUTER ITERATIONS 
       AND A TOTAL OF         23 INNER ITERATIONS.
    ------------------------------------------------

 NO OUTPUT CONTROL FOR STRESS PERIOD    2   TIME STEP    7

 SOLVING FOR HEAD 
                                                   Max.-Head-Change                        Max.-Flux-Residual
  Residual-Control   Outer-Iter.   Inner-Iter.     Column Row Layer    Max.-Head-Change    Column Row Layer    Max.-Flux-Residual            L2-New               L2-Old           Solver-Max-Delh
          0                 1          10            81   46     1       0.1785186457E+01      81   46    1       0.5743800801E+05      0.1965733544E+06      0.1628729149E+02      0.1785186457E+01
          0                 2           9            81   46     1      -0.1626782543E+00      81   46    1      -0.5763182125E+04      0.1958049896E+05      0.1965733544E+06     -0.1626782543E+00
          0                 3           3            64   28     1       0.5840904297E-03      64   28    1       0.1226588607E+02      0.1725422966E+02      0.1958049896E+05      0.5840904297E-03

    ------------------------------------------------
       NWT REQUIRED            3 OUTER ITERATIONS 
       AND A TOTAL OF         22 INNER ITERATIONS.
    ------------------------------------------------

 NO OUTPUT CONTROL FOR STRESS PERIOD    2   TIME STEP    8

 SOLVING FOR HEAD 
                                                   Max.-Head-Change                        Max.-Flux-Residual
  Residual-Control   Outer-Iter.   Inner-Iter.     Column Row Layer    Max.-Head-Change    Column Row Layer    Max.-Flux-Residual            L2-New               L2-Old           Solver-Max-Delh
          0                 1          10            81   46     1       0.1731766147E+01      81   46    1       0.5579752151E+05      0.1841091840E+06      0.1725422966E+02      0.1731766147E+01
          0                 2           9            81   46     1      -0.1575866284E+00      81   46    1      -0.5586155190E+04      0.1836209351E+05      0.1841091840E+06     -0.1575866284E+00
          0                 3           4            71   46     1       0.8629700928E-03      71   47    1      -0.2778700978E+02      0.4280359227E+02      0.1836209351E+05      0.8629700928E-03

    ------------------------------------------------
       NWT REQUIRED            3 OUTER ITERATIONS 
       AND A TOTAL OF         23 INNER ITERATIONS.
    ------------------------------------------------

 NO OUTPUT CONTROL FOR STRESS PERIOD    2   TIME STEP    9

 SOLVING FOR HEAD 
                                                   Max.-Head-Change                        Max.-Flux-Residual
  Residual-Control   Outer-Iter.   Inner-Iter.     Column Row Layer    Max.-Head-Change    Column Row Layer    Max.-Flux-Residual            L2-New               L2-Old           Solver-Max-Delh
          0                 1          10            81   46     1       0.1679168302E+01      81   46    1       0.5413619262E+05      0.1738708053E+06      0.4280359227E+02      0.1679168302E+01
          0                 2           9            81   46     1      -0.1521112732E+00      81   46    1      -0.5419680642E+04      0.1793407146E+05      0.1738708053E+06     -0.1521112732E+00
          0                 3           4            80   45     1      -0.3615464244E-03      53   43    1       0.1428559080E+02      0.1931395134E+02      0.1793407146E+05     -0.3615464244E-03

    ------------------------------------------------
       NWT REQUIRED            3 OUTER ITERATIONS 
       AND A TOTAL OF         23 INNER ITERATIONS.
    ------------------------------------------------

 NO OUTPUT CONTROL FOR STRESS PERIOD    2   TIME STEP   10

 SOLVING FOR HEAD 
                                                   Max.-Head-Change                        Max.-Flux-Residual
  Residual-Control   Outer-Iter.   Inner-Iter.     Column Row Layer    Max.-Head-Change    Column Row Layer    Max.-Flux-Residual            L2-New               L2-Old           Solver-Max-Delh
          0                 1          10            81   46     1       0.1629429135E+01      81   46    1       0.5251608306E+05      0.1655500409E+06      0.1931395134E+02      0.1629429135E+01
          0                 2           9            81   46     1      -0.1482575289E+00      81   46    1      -0.5257267626E+04      0.1656713721E+05      0.1655500409E+06     -0.1482575289E+00
          0                 3           3            80   45     1      -0.4608585673E-03      80   45    1      -0.7860220894E+00      0.2452490011E+01      0.1656713721E+05     -0.4608585673E-03

    ------------------------------------------------
       NWT REQUIRED            3 OUTER ITERATIONS 
       AND A TOTAL OF         22 INNER ITERATIONS.
    ------------------------------------------------

 NO OUTPUT CONTROL FOR STRESS PERIOD    2   TIME STEP   11

 SOLVING FOR HEAD 
                                                   Max.-Head-Change                        Max.-Flux-Residual
  Residual-Control   Outer-Iter.   Inner-Iter.     Column Row Layer    Max.-Head-Change    Column Row Layer    Max.-Flux-Residual            L2-New               L2-Old           Solver-Max-Delh
          0                 1          10            81   46     1       0.1580318336E+01      81   46    1       0.5093856501E+05      0.1581924674E+06      0.2452490011E+01      0.1580318336E+01
          0                 2           9            81   46     1      -0.1437850823E+00      81   46    1      -0.5099171771E+04      0.1581935923E+05      0.1581924674E+06     -0.1437850823E+00
          0                 3           3            80   45     1      -0.4719851063E-03      80   45    1      -0.8053032700E+00      0.2465958607E+01      0.1581935923E+05     -0.4719851063E-03

    ------------------------------------------------
       NWT REQUIRED            3 OUTER ITERATIONS 
       AND A TOTAL OF         22 INNER ITERATIONS.
    ------------------------------------------------

 OUTPUT CONTROL FOR STRESS PERIOD    2   TIME STEP   12
    SAVE BUDGET
 UBDSV1 SAVING "         STORAGE" ON UNIT  39 AT TIME STEP 12, STRESS PERIOD   2
 UBDSV2 SAVING "   CONSTANT HEAD" ON UNIT  39 AT TIME STEP 12, STRESS PERIOD   2
 UBDSV1 SAVING "FLOW RIGHT FACE " ON UNIT  39 AT TIME STEP 12, STRESS PERIOD   2
 UBDSV1 SAVING "FLOW FRONT FACE " ON UNIT  39 AT TIME STEP 12, STRESS PERIOD   2
 UBDSV1 SAVING "FLOW LOWER FACE " ON UNIT  39 AT TIME STEP 12, STRESS PERIOD   2
 UBDSV3 SAVING "              ET" ON UNIT  39 AT TIME STEP 12, STRESS PERIOD   2
 UBDSV3 SAVING "        RECHARGE" ON UNIT  39 AT TIME STEP 12, STRESS PERIOD   2
1
  VOLUMETRIC BUDGET FOR ENTIRE MODEL AT END OF TIME STEP   12, STRESS PERIOD   2
  ------------------------------------------------------------------------------

     CUMULATIVE VOLUMES      L**3       RATES FOR THIS TIME STEP      L**3/T
     ------------------                 ------------------------

           IN:                                      IN:
           ---                                      ---
             STORAGE =   327078624.0000               STORAGE =      841006.0000
       CONSTANT HEAD =   791803072.0000         CONSTANT HEAD =     1065419.6250
               WELLS =     1613019.0000                 WELLS =        2505.0000
                  ET =           0.0000                    ET =           0.0000
            RECHARGE =  8669944832.0000              RECHARGE =    13494542.0000

            TOTAL IN =  9790439424.0000              TOTAL IN =    15403473.0000

          OUT:                                     OUT:
          ----                                     ----
             STORAGE =  1124314496.0000               STORAGE =     2563094.0000
       CONSTANT HEAD =  2983966208.0000         CONSTANT HEAD =     4267095.5000
               WELLS =           0.0000                 WELLS =           0.0000
                  ET =  5682554368.0000                    ET =     8573312.0000
            RECHARGE =           0.0000              RECHARGE =           0.0000

           TOTAL OUT =  9790834688.0000             TOTAL OUT =    15403502.0000

            IN - OUT =     -395264.0000              IN - OUT =         -29.0000

 PERCENT DISCREPANCY =          -0.00     PERCENT DISCREPANCY =          -0.00






         TIME SUMMARY AT END OF TIME STEP   12 IN STRESS PERIOD    2
                    SECONDS     MINUTES      HOURS       DAYS        YEARS
                    -----------------------------------------------------------
   TIME STEP LENGTH 2.62800E+06  43800.      730.00      30.417     8.32763E-02
 STRESS PERIOD TIME 3.15360E+07 5.25600E+05  8760.0      365.00     0.99932    
         TOTAL TIME 6.31584E+07 1.05264E+06  17544.      731.00      2.0014    
1
1
                            STRESS PERIOD NO.    3, LENGTH =   365.0000    
                            -----------------------------------------------

                              NUMBER OF TIME STEPS =    12

                               MULTIPLIER FOR DELT =     1.000

                            INITIAL TIME STEP SIZE =   30.41667    

 WELL NO.  LAYER   ROW   COL   STRESS RATE         
 --------------------------------------------------
      1      3      1     72       835.0    
      2      2     85     10      0.4630E+05
      3      3     85     10      0.3700E+05

      3 WELLS

 REUSING SURF FROM LAST STRESS PERIOD

 REUSING EVTR FROM LAST STRESS PERIOD

 REUSING EXDP FROM LAST STRESS PERIOD



                           RECHARGE
 READING ON UNIT   16 WITH FORMAT: (15F5.0)            


     63 TIME-VARIANT SPECIFIED-HEAD CELLS

 SOLVING FOR HEAD 
                                                   Max.-Head-Change                        Max.-Flux-Residual
  Residual-Control   Outer-Iter.   Inner-Iter.     Column Row Layer    Max.-Head-Change    Column Row Layer    Max.-Flux-Residual            L2-New               L2-Old           Solver-Max-Delh
          0                 1          10            10   85     2       0.7727024436E+02      67   47    1      -0.1069923886E+06      0.4255792745E+06      0.2465958607E+01      0.7727024436E+02
          0                 2           9            92   77     2       0.5337026735E+01      62   45    1       0.1211290488E+05      0.4369636630E+05      0.4255792745E+06      0.5337026735E+01
          0                 3           4            92   77     2       0.2460662045E+00      62   46    1       0.3482559860E+03      0.5748915671E+03      0.4369636630E+05      0.2460662045E+00
          0                 4           2            92   77     2       0.1116601016E-01      92   77    2       0.6789238145E+01      0.7304170466E+01      0.5748915671E+03      0.1116601016E-01
          0                 5           2            92   77     2       0.5066116915E-03      92   77    2       0.3080113167E+00      0.3958920907E+00      0.7304170466E+01      0.5066116915E-03

    ------------------------------------------------
       NWT REQUIRED            5 OUTER ITERATIONS 
       AND A TOTAL OF         27 INNER ITERATIONS.
    ------------------------------------------------

 NO OUTPUT CONTROL FOR STRESS PERIOD    3   TIME STEP    1

 SOLVING FOR HEAD 
                                                   Max.-Head-Change                        Max.-Flux-Residual
  Residual-Control   Outer-Iter.   Inner-Iter.     Column Row Layer    Max.-Head-Change    Column Row Layer    Max.-Flux-Residual            L2-New               L2-Old           Solver-Max-Delh
          0                 1          10            81   45     1      -0.2334147241E+01      76   48    1      -0.8150264465E+05      0.3057888287E+06      0.3958920907E+00     -0.2334147241E+01
          0                 2           9            85   62     1      -0.2253968623E+01      81   45    1       0.1104243596E+05      0.3199611527E+05      0.3057888287E+06     -0.2253968623E+01
          0                 3           4            85   62     1       0.1424559842E+00      85   62    2      -0.2576783367E+03      0.3209284038E+03      0.3199611527E+05      0.1424559842E+00
          0                 4           1            85   62     1       0.3944999712E-02      85   62    1       0.4930808044E+01      0.4932863115E+01      0.3209284038E+03      0.3944999712E-02

    ------------------------------------------------
       NWT REQUIRED            4 OUTER ITERATIONS 
       AND A TOTAL OF         24 INNER ITERATIONS.
    ------------------------------------------------

 NO OUTPUT CONTROL FOR STRESS PERIOD    3   TIME STEP    2

 SOLVING FOR HEAD 
                                                   Max.-Head-Change                        Max.-Flux-Residual
  Residual-Control   Outer-Iter.   Inner-Iter.     Column Row Layer    Max.-Head-Change    Column Row Layer    Max.-Flux-Residual            L2-New               L2-Old           Solver-Max-Delh
          0                 1          10            81   45     1      -0.1925222867E+01      76   48    1      -0.6401436863E+05      0.2425573413E+06      0.4932863115E+01     -0.1925222867E+01
          0                 2           9            81   45     1       0.1747749291E+00      70   47    1       0.7005082272E+04      0.2466682130E+05      0.2425573413E+06      0.1747749291E+00
          0                 3           3            85   62     1       0.1285720421E-02      85   52    1       0.6782232288E+01      0.1186212500E+02      0.2466682130E+05      0.1285720421E-02

    ------------------------------------------------
       NWT REQUIRED            3 OUTER ITERATIONS 
       AND A TOTAL OF         22 INNER ITERATIONS.
    ------------------------------------------------

 NO OUTPUT CONTROL FOR STRESS PERIOD    3   TIME STEP    3

 SOLVING FOR HEAD 
                                                   Max.-Head-Change                        Max.-Flux-Residual
  Residual-Control   Outer-Iter.   Inner-Iter.     Column Row Layer    Max.-Head-Change    Column Row Layer    Max.-Flux-Residual            L2-New               L2-Old           Solver-Max-Delh
          0                 1          10            81   45     1      -0.1676213682E+01      81   45    1      -0.5216917732E+05      0.2010696405E+06      0.1186212500E+02     -0.1676213682E+01
          0                 2           9            81   45     1       0.1522585316E+00      81   45    1       0.5211471052E+04      0.2003035669E+05      0.2010696405E+06      0.1522585316E+00
          0                 3           4            92   52     3      -0.5442930456E-02      70   46    1      -0.8486974815E+02      0.9675705432E+02      0.2003035669E+05     -0.5442930456E-02

    ------------------------------------------------
       NWT REQUIRED            3 OUTER ITERATIONS 
       AND A TOTAL OF         23 INNER ITERATIONS.
    ------------------------------------------------

 NO OUTPUT CONTROL FOR STRESS PERIOD    3   TIME STEP    4

 SOLVING FOR HEAD 
                                                   Max.-Head-Change                        Max.-Flux-Residual
  Residual-Control   Outer-Iter.   Inner-Iter.     Column Row Layer    Max.-Head-Change    Column Row Layer    Max.-Flux-Residual            L2-New               L2-Old           Solver-Max-Delh
          0                 1          10            81   45     1      -0.1460819563E+01      81   45    1      -0.4541840729E+05      0.1716634052E+06      0.9675705432E+02     -0.1460819563E+01
          0                 2           9            81   45     1       0.1327058566E+00      81   45    1       0.4537866307E+04      0.1716655593E+05      0.1716634052E+06      0.1327058566E+00
          0                 3           3            92   52     3       0.2641135569E-02      92   51    2      -0.2434967455E+02      0.4129798567E+02      0.1716655593E+05      0.2641135569E-02

    ------------------------------------------------
       NWT REQUIRED            3 OUTER ITERATIONS 
       AND A TOTAL OF         22 INNER ITERATIONS.
    ------------------------------------------------

 NO OUTPUT CONTROL FOR STRESS PERIOD    3   TIME STEP    5

 SOLVING FOR HEAD 
                                                   Max.-Head-Change                        Max.-Flux-Residual
  Residual-Control   Outer-Iter.   Inner-Iter.     Column Row Layer    Max.-Head-Change    Column Row Layer    Max.-Flux-Residual            L2-New               L2-Old           Solver-Max-Delh
          0                 1          10            81   46     1      -0.1295600426E+01      81   46    1      -0.4178863857E+05      0.1497476956E+06      0.4129798567E+02     -0.1295600426E+01
          0                 2           9            81   46     1       0.1177212681E+00      81   46    1       0.4176197538E+04      0.1495449185E+05      0.1497476956E+06      0.1177212681E+00
          0                 3           3            11   85     1      -0.5349958580E-03      91   67    1       0.6278056279E+00      0.2066338626E+01      0.1495449185E+05     -0.5349958580E-03

    ------------------------------------------------
       NWT REQUIRED            3 OUTER ITERATIONS 
       AND A TOTAL OF         22 INNER ITERATIONS.
    ------------------------------------------------

 NO OUTPUT CONTROL FOR STRESS PERIOD    3   TIME STEP    6

 SOLVING FOR HEAD 
                                                   Max.-Head-Change                        Max.-Flux-Residual
  Residual-Control   Outer-Iter.   Inner-Iter.     Column Row Layer    Max.-Head-Change    Column Row Layer    Max.-Flux-Residual            L2-New               L2-Old           Solver-Max-Delh
          0                 1          10            81   46     1      -0.1255129647E+01      81   46    1      -0.4050650522E+05      0.1329584265E+06      0.2066338626E+01     -0.1255129647E+01
          0                 2           9            81   46     1       0.1140067589E+00      81   46    1       0.4048042689E+04      0.1352009441E+05      0.1329584265E+06      0.1140067589E+00
          0                 3           3            10   82     1      -0.4862865748E-03      87   51    1      -0.8961464003E+01      0.1292248384E+02      0.1352009441E+05     -0.4862865748E-03

    ------------------------------------------------
       NWT REQUIRED            3 OUTER ITERATIONS 
       AND A TOTAL OF         22 INNER ITERATIONS.
    ------------------------------------------------

 NO OUTPUT CONTROL FOR STRESS PERIOD    3   TIME STEP    7

 INTERPOLATION FOR HEAD OBS# 1866, ID 2629-3-217   CHANGED BECAUSE AT LEAST ONE
 NEIGHBORING CELL REQUIRED FOR INTERPOLATION IS DRY OR INACTIVE (OBS2BAS7SE)

 SOLVING FOR HEAD 
                                                   Max.-Head-Change                        Max.-Flux-Residual
  Residual-Control   Outer-Iter.   Inner-Iter.     Column Row Layer    Max.-Head-Change    Column Row Layer    Max.-Flux-Residual            L2-New               L2-Old           Solver-Max-Delh
          0                 1          10            81   46     1      -0.1215420459E+01      81   46    1      -0.3924218054E+05      0.1197193836E+06      0.1292248384E+02     -0.1215420459E+01
          0                 2           9            81   46     1       0.1104419382E+00      81   46    1       0.3921701261E+04      0.1195156150E+05      0.1197193836E+06      0.1104419382E+00
          0                 3           3            10   82     1      -0.5181095867E-03      78   45    2      -0.1448664906E+01      0.2777710231E+01      0.1195156150E+05     -0.5181095867E-03

    ------------------------------------------------
       NWT REQUIRED            3 OUTER ITERATIONS 
       AND A TOTAL OF         22 INNER ITERATIONS.
    ------------------------------------------------

 NO OUTPUT CONTROL FOR STRESS PERIOD    3   TIME STEP    8

 SOLVING FOR HEAD 
                                                   Max.-Head-Change                        Max.-Flux-Residual
  Residual-Control   Outer-Iter.   Inner-Iter.     Column Row Layer    Max.-Head-Change    Column Row Layer    Max.-Flux-Residual            L2-New               L2-Old           Solver-Max-Delh
          0                 1          10            81   46     1      -0.1176396406E+01      81   46    1      -0.3799892861E+05      0.1090283748E+06      0.2777710231E+01     -0.1176396406E+01
          0                 2           8            81   46     1       0.1068917863E+00      81   46    1       0.3797486354E+04      0.1090750433E+05      0.1090283748E+06      0.1068917863E+00
          0                 3           3            84   47     2      -0.2375865853E-02      84   47    2      -0.3375976125E+02      0.4443672484E+02      0.1090750433E+05     -0.2375865853E-02

    ------------------------------------------------
       NWT REQUIRED            3 OUTER ITERATIONS 
       AND A TOTAL OF         21 INNER ITERATIONS.
    ------------------------------------------------

 NO OUTPUT CONTROL FOR STRESS PERIOD    3   TIME STEP    9

 SOLVING FOR HEAD 
                                                   Max.-Head-Change                        Max.-Flux-Residual
  Residual-Control   Outer-Iter.   Inner-Iter.     Column Row Layer    Max.-Head-Change    Column Row Layer    Max.-Flux-Residual            L2-New               L2-Old           Solver-Max-Delh
          0                 1          10            81   46     1      -0.1138195983E+01      81   46    1      -0.3677876133E+05      0.1005065454E+06      0.4443672484E+02     -0.1138195983E+01
          0                 2           8            81   46     1       0.1741299807E+00      81   46    1       0.6751936581E+04      0.1153253663E+05      0.1005065454E+06      0.1741299807E+00
          0                 3           3            10   82     1      -0.5528460948E-03      86   52    1      -0.2004616132E+01      0.3375923992E+01      0.1153253663E+05     -0.5528460948E-03

    ------------------------------------------------
       NWT REQUIRED            3 OUTER ITERATIONS 
       AND A TOTAL OF         21 INNER ITERATIONS.
    ------------------------------------------------

 NO OUTPUT CONTROL FOR STRESS PERIOD    3   TIME STEP   10

 SOLVING FOR HEAD 
                                                   Max.-Head-Change                        Max.-Flux-Residual
  Residual-Control   Outer-Iter.   Inner-Iter.     Column Row Layer    Max.-Head-Change    Column Row Layer    Max.-Flux-Residual            L2-New               L2-Old           Solver-Max-Delh
          0                 1          10            81   46     1      -0.9435074479E+00      81   46    1      -0.3315269493E+05      0.9271885668E+05      0.3375923992E+01     -0.9435074479E+00
          0                 2           8            81   46     1       0.8574128672E-01      81   46    1       0.3313734853E+04      0.9267488701E+04      0.9271885668E+05      0.8574128672E-01
          0                 3           3            10   82     1      -0.5596342017E-03      91   67    1       0.4954341054E+00      0.1821645835E+01      0.9267488701E+04     -0.5596342017E-03

    ------------------------------------------------
       NWT REQUIRED            3 OUTER ITERATIONS 
       AND A TOTAL OF         21 INNER ITERATIONS.
    ------------------------------------------------

 NO OUTPUT CONTROL FOR STRESS PERIOD    3   TIME STEP   11

 SOLVING FOR HEAD 
                                                   Max.-Head-Change                        Max.-Flux-Residual
  Residual-Control   Outer-Iter.   Inner-Iter.     Column Row Layer    Max.-Head-Change    Column Row Layer    Max.-Flux-Residual            L2-New               L2-Old           Solver-Max-Delh
          0                 1          10            81   46     1      -0.8396239763E+00      81   46    1      -0.2949700820E+05      0.8616977192E+05      0.1821645835E+01     -0.8396239763E+00
          0                 2           8            81   46     1       0.7630416267E-01      81   46    1       0.2948493190E+04      0.8613907486E+04      0.8616977192E+05      0.7630416267E-01
          0                 3           3            10   82     1      -0.5614778315E-03      91   67    1       0.4745709039E+00      0.1807169766E+01      0.8613907486E+04     -0.5614778315E-03

    ------------------------------------------------
       NWT REQUIRED            3 OUTER ITERATIONS 
       AND A TOTAL OF         21 INNER ITERATIONS.
    ------------------------------------------------

 OUTPUT CONTROL FOR STRESS PERIOD    3   TIME STEP   12
    SAVE BUDGET
 UBDSV1 SAVING "         STORAGE" ON UNIT  39 AT TIME STEP 12, STRESS PERIOD   3
 UBDSV2 SAVING "   CONSTANT HEAD" ON UNIT  39 AT TIME STEP 12, STRESS PERIOD   3
 UBDSV1 SAVING "FLOW RIGHT FACE " ON UNIT  39 AT TIME STEP 12, STRESS PERIOD   3
 UBDSV1 SAVING "FLOW FRONT FACE " ON UNIT  39 AT TIME STEP 12, STRESS PERIOD   3
 UBDSV1 SAVING "FLOW LOWER FACE " ON UNIT  39 AT TIME STEP 12, STRESS PERIOD   3
 UBDSV3 SAVING "              ET" ON UNIT  39 AT TIME STEP 12, STRESS PERIOD   3
 UBDSV3 SAVING "        RECHARGE" ON UNIT  39 AT TIME STEP 12, STRESS PERIOD   3
1
  VOLUMETRIC BUDGET FOR ENTIRE MODEL AT END OF TIME STEP   12, STRESS PERIOD   3
  ------------------------------------------------------------------------------

     CUMULATIVE VOLUMES      L**3       RATES FOR THIS TIME STEP      L**3/T
     ------------------                 ------------------------

           IN:                                      IN:
           ---                                      ---
             STORAGE =  1254673664.0000               STORAGE =     2012612.0000
       CONSTANT HEAD =  1162312064.0000         CONSTANT HEAD =      988564.7500
               WELLS =    32322652.0000                 WELLS =       84136.0000
                  ET =           0.0000                    ET =           0.0000
            RECHARGE = 11984239616.0000              RECHARGE =     9080258.0000

            TOTAL IN = 14433548288.0000              TOTAL IN =    12165571.0000

          OUT:                                     OUT:
          ----                                     ----
             STORAGE =  1337323904.0000               STORAGE =      338647.7500
       CONSTANT HEAD =  4535981568.0000         CONSTANT HEAD =     4262634.0000
               WELLS =           0.0000                 WELLS =           0.0000
                  ET =  8560648704.0000                    ET =     7564317.0000
            RECHARGE =           0.0000              RECHARGE =           0.0000

           TOTAL OUT = 14433953792.0000             TOTAL OUT =    12165599.0000

            IN - OUT =     -405504.0000              IN - OUT =         -28.0000

 PERCENT DISCREPANCY =          -0.00     PERCENT DISCREPANCY =          -0.00






         TIME SUMMARY AT END OF TIME STEP   12 IN STRESS PERIOD    3
                    SECONDS     MINUTES      HOURS       DAYS        YEARS
                    -----------------------------------------------------------
   TIME STEP LENGTH 2.62800E+06  43800.      730.00      30.417     8.32763E-02
 STRESS PERIOD TIME 3.15360E+07 5.25600E+05  8760.0      365.00     0.99932    
         TOTAL TIME 9.46944E+07 1.57824E+06  26304.      1096.0      3.0007    
1
1
                            STRESS PERIOD NO.    4, LENGTH =   365.0000    
                            -----------------------------------------------

                              NUMBER OF TIME STEPS =    12

                               MULTIPLIER FOR DELT =     1.000

                            INITIAL TIME STEP SIZE =   30.41667    

 WELL NO.  LAYER   ROW   COL   STRESS RATE         
 --------------------------------------------------
      1      3     85     11      0.4177E+05
      2      2     85     12      0.6898E+05

      2 WELLS

 REUSING SURF FROM LAST STRESS PERIOD

 REUSING EVTR FROM LAST STRESS PERIOD

 REUSING EXDP FROM LAST STRESS PERIOD



                           RECHARGE
 READING ON UNIT   16 WITH FORMAT: (15F5.0)            


     63 TIME-VARIANT SPECIFIED-HEAD CELLS

 SOLVING FOR HEAD 
                                                   Max.-Head-Change                        Max.-Flux-Residual
  Residual-Control   Outer-Iter.   Inner-Iter.     Column Row Layer    Max.-Head-Change    Column Row Layer    Max.-Flux-Residual            L2-New               L2-Old           Solver-Max-Delh
          0                 1          10            12   85     2       0.1006947382E+03      12   85    2       0.6897999116E+05      0.2915872299E+06      0.1807169766E+01      0.1006947382E+03
          0                 2           9            12   85     2      -0.1817078944E+01      11   85    3      -0.4801267222E+04      0.2866250407E+05      0.2915872299E+06     -0.1817078944E+01
          0                 3           5            12   85     1      -0.1499006347E+00      12   85    2      -0.5856467621E+02      0.1199139265E+03      0.2866250407E+05     -0.1499006347E+00
          0                 4           2            12   85     1      -0.1260572163E-01      12   85    1      -0.4786090568E+01      0.6994581126E+01      0.1199139265E+03     -0.1260572163E-01
          0                 5           2            12   85     1      -0.1058317695E-02      12   85    1      -0.4018954486E+00      0.5969853768E+00      0.6994581126E+01     -0.1058317695E-02

    ------------------------------------------------
       NWT REQUIRED            5 OUTER ITERATIONS 
       AND A TOTAL OF         28 INNER ITERATIONS.
    ------------------------------------------------

 NO OUTPUT CONTROL FOR STRESS PERIOD    4   TIME STEP    1

 SOLVING FOR HEAD 
                                                   Max.-Head-Change                        Max.-Flux-Residual
  Residual-Control   Outer-Iter.   Inner-Iter.     Column Row Layer    Max.-Head-Change    Column Row Layer    Max.-Flux-Residual            L2-New               L2-Old           Solver-Max-Delh
          0                 1          10            12   85     3       0.1561617726E+01      12   85    3       0.4290394699E+05      0.1830607622E+06      0.5969853768E+00      0.1561617726E+01
          0                 2           9            12   85     3      -0.1393073184E+00      12   85    3      -0.4301031470E+04      0.1831518780E+05      0.1830607622E+06     -0.1393073184E+00
          0                 3           4            13   85     1      -0.1048797679E-02      20   74    3       0.5754872032E+01      0.7115868511E+01      0.1831518780E+05     -0.1048797679E-02

    ------------------------------------------------
       NWT REQUIRED            3 OUTER ITERATIONS 
       AND A TOTAL OF         23 INNER ITERATIONS.
    ------------------------------------------------

 NO OUTPUT CONTROL FOR STRESS PERIOD    4   TIME STEP    2

 SOLVING FOR HEAD 
                                                   Max.-Head-Change                        Max.-Flux-Residual
  Residual-Control   Outer-Iter.   Inner-Iter.     Column Row Layer    Max.-Head-Change    Column Row Layer    Max.-Flux-Residual            L2-New               L2-Old           Solver-Max-Delh
          0                 1          10            12   85     3       0.1048986893E+01      69   47    1      -0.2779732598E+05      0.1440149948E+06      0.7115868511E+01      0.1048986893E+01
          0                 2           9            12   85     3      -0.9352205079E-01      69   47    1       0.2772046655E+04      0.1439463985E+05      0.1440149948E+06     -0.9352205079E-01
          0                 3           4            13   85     1      -0.9236648806E-03      59   80    1      -0.3155669868E+01      0.4532777461E+01      0.1439463985E+05     -0.9236648806E-03

    ------------------------------------------------
       NWT REQUIRED            3 OUTER ITERATIONS 
       AND A TOTAL OF         23 INNER ITERATIONS.
    ------------------------------------------------

 NO OUTPUT CONTROL FOR STRESS PERIOD    4   TIME STEP    3

 SOLVING FOR HEAD 
                                                   Max.-Head-Change                        Max.-Flux-Residual
  Residual-Control   Outer-Iter.   Inner-Iter.     Column Row Layer    Max.-Head-Change    Column Row Layer    Max.-Flux-Residual            L2-New               L2-Old           Solver-Max-Delh
          0                 1          10            12   85     3       0.7513647684E+00      69   47    1      -0.2443412969E+05      0.1237333724E+06      0.4532777461E+01      0.7513647684E+00
          0                 2           9            12   85     3      -0.6681040090E-01      69   47    1       0.2437331479E+04      0.1236978013E+05      0.1237333724E+06     -0.6681040090E-01
          0                 3           4            13   85     1      -0.7845923625E-03      91   67    1       0.5507952534E+00      0.2842112525E+01      0.1236978013E+05     -0.7845923625E-03

    ------------------------------------------------
       NWT REQUIRED            3 OUTER ITERATIONS 
       AND A TOTAL OF         23 INNER ITERATIONS.
    ------------------------------------------------

 NO OUTPUT CONTROL FOR STRESS PERIOD    4   TIME STEP    4

 SOLVING FOR HEAD 
                                                   Max.-Head-Change                        Max.-Flux-Residual
  Residual-Control   Outer-Iter.   Inner-Iter.     Column Row Layer    Max.-Head-Change    Column Row Layer    Max.-Flux-Residual            L2-New               L2-Old           Solver-Max-Delh
          0                 1          10            12   85     3       0.5706051379E+00      69   47    1      -0.2149831235E+05      0.1106080789E+06      0.2842112525E+01      0.5706051379E+00
          0                 2           9            12   85     3      -0.5067557821E-01      70   47    1       0.2230866713E+04      0.1104659806E+05      0.1106080789E+06     -0.5067557821E-01
          0                 3           4            13   85     1      -0.6664630127E-03      69   48    1      -0.3143558361E+02      0.4860366786E+02      0.1104659806E+05     -0.6664630127E-03

    ------------------------------------------------
       NWT REQUIRED            3 OUTER ITERATIONS 
       AND A TOTAL OF         23 INNER ITERATIONS.
    ------------------------------------------------

 NO OUTPUT CONTROL FOR STRESS PERIOD    4   TIME STEP    5

 SOLVING FOR HEAD 
                                                   Max.-Head-Change                        Max.-Flux-Residual
  Residual-Control   Outer-Iter.   Inner-Iter.     Column Row Layer    Max.-Head-Change    Column Row Layer    Max.-Flux-Residual            L2-New               L2-Old           Solver-Max-Delh
          0                 1          10            81   46     1      -0.4751260230E+00      69   47    1      -0.1893537220E+05      0.1011607691E+06      0.4860366786E+02     -0.4751260230E+00
          0                 2           9            69   47     1       0.4878338833E-01      69   47    1       0.2248593606E+04      0.1017058833E+05      0.1011607691E+06      0.4878338833E-01
          0                 3           4            13   85     1      -0.5711394687E-03      91   67    1       0.5123003162E+00      0.2595109226E+01      0.1017058833E+05     -0.5711394687E-03

    ------------------------------------------------
       NWT REQUIRED            3 OUTER ITERATIONS 
       AND A TOTAL OF         23 INNER ITERATIONS.
    ------------------------------------------------

 NO OUTPUT CONTROL FOR STRESS PERIOD    4   TIME STEP    6

 SOLVING FOR HEAD 
                                                   Max.-Head-Change                        Max.-Flux-Residual
  Residual-Control   Outer-Iter.   Inner-Iter.     Column Row Layer    Max.-Head-Change    Column Row Layer    Max.-Flux-Residual            L2-New               L2-Old           Solver-Max-Delh
          0                 1          10            81   46     1      -0.4235846012E+00      69   47    1      -0.1646605415E+05      0.9387284154E+05      0.2595109226E+01     -0.4235846012E+00
          0                 2           9            81   46     1       0.3850155360E-01      69   47    1       0.1644748899E+04      0.9383736895E+04      0.9387284154E+05      0.3850155360E-01
          0                 3           4            13   85     1      -0.4974236459E-03      91   67    1       0.4950416200E+00      0.2494207384E+01      0.9383736895E+04     -0.4974236459E-03

    ------------------------------------------------
       NWT REQUIRED            3 OUTER ITERATIONS 
       AND A TOTAL OF         23 INNER ITERATIONS.
    ------------------------------------------------

 NO OUTPUT CONTROL FOR STRESS PERIOD    4   TIME STEP    7

 SOLVING FOR HEAD 
                                                   Max.-Head-Change                        Max.-Flux-Residual
  Residual-Control   Outer-Iter.   Inner-Iter.     Column Row Layer    Max.-Head-Change    Column Row Layer    Max.-Flux-Residual            L2-New               L2-Old           Solver-Max-Delh
          0                 1          10            81   46     1      -0.3777169465E+00      70   47    1      -0.1447192861E+05      0.8805629313E+05      0.2494207384E+01     -0.3777169465E+00
          0                 2           9            81   46     1       0.3433304342E-01      70   47    1       0.1446413461E+04      0.8799561633E+04      0.8805629313E+05      0.3433304342E-01
          0                 3           4            13   85     1      -0.4404237811E-03      63   26    1       0.2336206168E+01      0.4079643146E+01      0.8799561633E+04     -0.4404237811E-03

    ------------------------------------------------
       NWT REQUIRED            3 OUTER ITERATIONS 
       AND A TOTAL OF         23 INNER ITERATIONS.
    ------------------------------------------------

 NO OUTPUT CONTROL FOR STRESS PERIOD    4   TIME STEP    8

 SOLVING FOR HEAD 
                                                   Max.-Head-Change                        Max.-Flux-Residual
  Residual-Control   Outer-Iter.   Inner-Iter.     Column Row Layer    Max.-Head-Change    Column Row Layer    Max.-Flux-Residual            L2-New               L2-Old           Solver-Max-Delh
          0                 1          10            81   46     1      -0.3368927005E+00      70   47    1      -0.1281442213E+05      0.8329130311E+05      0.4079643146E+01     -0.3368927005E+00
          0                 2           9            81   46     1       0.3062275556E-01      70   47    1       0.1280816511E+04      0.8298736149E+04      0.8329130311E+05      0.3062275556E-01
          0                 3           4            13   85     1      -0.3962234970E-03      91   67    1       0.4639837109E+00      0.2367769357E+01      0.8298736149E+04     -0.3962234970E-03

    ------------------------------------------------
       NWT REQUIRED            3 OUTER ITERATIONS 
       AND A TOTAL OF         23 INNER ITERATIONS.
    ------------------------------------------------

 NO OUTPUT CONTROL FOR STRESS PERIOD    4   TIME STEP    9

 SOLVING FOR HEAD 
                                                   Max.-Head-Change                        Max.-Flux-Residual
  Residual-Control   Outer-Iter.   Inner-Iter.     Column Row Layer    Max.-Head-Change    Column Row Layer    Max.-Flux-Residual            L2-New               L2-Old           Solver-Max-Delh
          0                 1          10            81   46     1      -0.3005529937E+00      70   47    1      -0.1139972658E+05      0.7933314384E+05      0.2367769357E+01     -0.3005529937E+00
          0                 2           9            81   46     1       0.2731994074E-01      70   47    1       0.1139515591E+04      0.7932278680E+04      0.7933314384E+05      0.2731994074E-01
          0                 3           4            10   82     1      -0.3720592734E-03      91   67    1       0.4500077963E+00      0.2304597535E+01      0.7932278680E+04     -0.3720592734E-03

    ------------------------------------------------
       NWT REQUIRED            3 OUTER ITERATIONS 
       AND A TOTAL OF         23 INNER ITERATIONS.
    ------------------------------------------------

 NO OUTPUT CONTROL FOR STRESS PERIOD    4   TIME STEP   10

 SOLVING FOR HEAD 
                                                   Max.-Head-Change                        Max.-Flux-Residual
  Residual-Control   Outer-Iter.   Inner-Iter.     Column Row Layer    Max.-Head-Change    Column Row Layer    Max.-Flux-Residual            L2-New               L2-Old           Solver-Max-Delh
          0                 1          10            81   46     1      -0.2682009480E+00      70   47    1      -0.1020271166E+05      0.7600608777E+05      0.2304597535E+01     -0.2682009480E+00
          0                 2           9            81   46     1       0.2437947315E-01      70   47    1       0.1019930790E+04      0.7598735632E+04      0.7600608777E+05      0.2437947315E-01
          0                 3           4            10   82     1      -0.3727140662E-03      91   67    1       0.4369603135E+00      0.2256973960E+01      0.7598735632E+04     -0.3727140662E-03

    ------------------------------------------------
       NWT REQUIRED            3 OUTER ITERATIONS 
       AND A TOTAL OF         23 INNER ITERATIONS.
    ------------------------------------------------

 NO OUTPUT CONTROL FOR STRESS PERIOD    4   TIME STEP   11

 SOLVING FOR HEAD 
                                                   Max.-Head-Change                        Max.-Flux-Residual
  Residual-Control   Outer-Iter.   Inner-Iter.     Column Row Layer    Max.-Head-Change    Column Row Layer    Max.-Flux-Residual            L2-New               L2-Old           Solver-Max-Delh
          0                 1          10            71   47     1      -0.2453183652E+00      71   47    1      -0.9206326390E+04      0.7313966872E+05      0.2256973960E+01     -0.2453183652E+00
          0                 2           9            71   47     1       0.2229303002E-01      71   47    1       0.9201465622E+03      0.7312951996E+04      0.7313966872E+05      0.2229303002E-01
          0                 3           4            64   42     2      -0.9397271459E-03      64   42    2      -0.8293843354E+01      0.9313089858E+01      0.7312951996E+04     -0.9397271459E-03

    ------------------------------------------------
       NWT REQUIRED            3 OUTER ITERATIONS 
       AND A TOTAL OF         23 INNER ITERATIONS.
    ------------------------------------------------

 OUTPUT CONTROL FOR STRESS PERIOD    4   TIME STEP   12
    SAVE BUDGET
 UBDSV1 SAVING "         STORAGE" ON UNIT  39 AT TIME STEP 12, STRESS PERIOD   4
 UBDSV2 SAVING "   CONSTANT HEAD" ON UNIT  39 AT TIME STEP 12, STRESS PERIOD   4
 UBDSV1 SAVING "FLOW RIGHT FACE " ON UNIT  39 AT TIME STEP 12, STRESS PERIOD   4
 UBDSV1 SAVING "FLOW FRONT FACE " ON UNIT  39 AT TIME STEP 12, STRESS PERIOD   4
 UBDSV1 SAVING "FLOW LOWER FACE " ON UNIT  39 AT TIME STEP 12, STRESS PERIOD   4
 UBDSV3 SAVING "              ET" ON UNIT  39 AT TIME STEP 12, STRESS PERIOD   4
 UBDSV3 SAVING "        RECHARGE" ON UNIT  39 AT TIME STEP 12, STRESS PERIOD   4
1
  VOLUMETRIC BUDGET FOR ENTIRE MODEL AT END OF TIME STEP   12, STRESS PERIOD   4
  ------------------------------------------------------------------------------

     CUMULATIVE VOLUMES      L**3       RATES FOR THIS TIME STEP      L**3/T
     ------------------                 ------------------------

           IN:                                      IN:
           ---                                      ---
             STORAGE =  1763815424.0000               STORAGE =     1136594.8750
       CONSTANT HEAD =  1522363008.0000         CONSTANT HEAD =      983070.8125
               WELLS =    72746384.0000                 WELLS =      110750.0000
                  ET =           0.0000                    ET =           0.0000
            RECHARGE = 16069704704.0000              RECHARGE =    11193061.0000

            TOTAL IN = 19428630528.0000              TOTAL IN =    13423477.0000

          OUT:                                     OUT:
          ----                                     ----
             STORAGE =  1972031360.0000               STORAGE =     1421859.2500
       CONSTANT HEAD =  6115350528.0000         CONSTANT HEAD =     4366438.5000
               WELLS =           0.0000                 WELLS =           0.0000
                  ET = 11341663232.0000                    ET =     7635205.5000
            RECHARGE =           0.0000              RECHARGE =           0.0000

           TOTAL OUT = 19429044224.0000             TOTAL OUT =    13423504.0000

            IN - OUT =     -413696.0000              IN - OUT =         -27.0000

 PERCENT DISCREPANCY =          -0.00     PERCENT DISCREPANCY =          -0.00






         TIME SUMMARY AT END OF TIME STEP   12 IN STRESS PERIOD    4
                    SECONDS     MINUTES      HOURS       DAYS        YEARS
                    -----------------------------------------------------------
   TIME STEP LENGTH 2.62800E+06  43800.      730.00      30.417     8.32763E-02
 STRESS PERIOD TIME 3.15360E+07 5.25600E+05  8760.0      365.00     0.99932    
         TOTAL TIME 1.26230E+08 2.10384E+06  35064.      1461.0      4.0000    
1
1
                            STRESS PERIOD NO.    5, LENGTH =   366.0000    
                            -----------------------------------------------

                              NUMBER OF TIME STEPS =    12

                               MULTIPLIER FOR DELT =     1.000

                            INITIAL TIME STEP SIZE =   30.50000    

 WELL NO.  LAYER   ROW   COL   STRESS RATE         
 --------------------------------------------------
      1      2     85     13      0.7495E+05
      2      3     85     13      0.5967E+05
      3      2     85     14      0.6898E+05

      3 WELLS

 REUSING SURF FROM LAST STRESS PERIOD

 REUSING EVTR FROM LAST STRESS PERIOD

 REUSING EXDP FROM LAST STRESS PERIOD



                           RECHARGE
 READING ON UNIT   16 WITH FORMAT: (15F5.0)            


     63 TIME-VARIANT SPECIFIED-HEAD CELLS

 SOLVING FOR HEAD 
                                                   Max.-Head-Change                        Max.-Flux-Residual
  Residual-Control   Outer-Iter.   Inner-Iter.     Column Row Layer    Max.-Head-Change    Column Row Layer    Max.-Flux-Residual            L2-New               L2-Old           Solver-Max-Delh
          0                 1          10            14   85     2       0.1188832350E+03      81   45    1       0.9734210592E+05      0.3067627176E+06      0.9313089858E+01      0.1188832350E+03
          0                 2           9            92   77     2       0.1802844480E+01      81   45    1      -0.9787177741E+04      0.2948221434E+05      0.3067627176E+06      0.1802844480E+01
          0                 3           4            13   85     1      -0.1298043253E+00      12   85    3       0.9057995327E+02      0.1291472547E+03      0.2948221434E+05     -0.1298043253E+00
          0                 4           2            13   85     1      -0.1051277763E-01      13   85    1      -0.4008459538E+01      0.7459947955E+01      0.1291472547E+03     -0.1051277763E-01
          0                 5           2            13   85     1      -0.8500057537E-03      12   84    3       0.4403572232E+00      0.7389040416E+00      0.7459947955E+01     -0.8500057537E-03

    ------------------------------------------------
       NWT REQUIRED            5 OUTER ITERATIONS 
       AND A TOTAL OF         27 INNER ITERATIONS.
    ------------------------------------------------

 NO OUTPUT CONTROL FOR STRESS PERIOD    5   TIME STEP    1

 SOLVING FOR HEAD 
                                                   Max.-Head-Change                        Max.-Flux-Residual
  Residual-Control   Outer-Iter.   Inner-Iter.     Column Row Layer    Max.-Head-Change    Column Row Layer    Max.-Flux-Residual            L2-New               L2-Old           Solver-Max-Delh
          0                 1          10            81   45     1       0.2750032196E+01      81   45    1       0.8499222201E+05      0.2292497385E+06      0.7389040416E+00      0.2750032196E+01
          0                 2           9            81   45     1      -0.2503150795E+00      81   45    1      -0.8512659217E+04      0.2305045793E+05      0.2292497385E+06     -0.2503150795E+00
          0                 3           4            13   85     1      -0.2186493819E-02      14   85    2       0.6011629844E+01      0.9719888948E+01      0.2305045793E+05     -0.2186493819E-02

    ------------------------------------------------
       NWT REQUIRED            3 OUTER ITERATIONS 
       AND A TOTAL OF         23 INNER ITERATIONS.
    ------------------------------------------------

 NO OUTPUT CONTROL FOR STRESS PERIOD    5   TIME STEP    2

 SOLVING FOR HEAD 
                                                   Max.-Head-Change                        Max.-Flux-Residual
  Residual-Control   Outer-Iter.   Inner-Iter.     Column Row Layer    Max.-Head-Change    Column Row Layer    Max.-Flux-Residual            L2-New               L2-Old           Solver-Max-Delh
          0                 1          10            81   45     1       0.2405117029E+01      81   45    1       0.7429225232E+05      0.1903693005E+06      0.9719888948E+01      0.2405117029E+01
          0                 2           9            81   45     1      -0.2188778922E+00      81   45    1      -0.7439269890E+04      0.1906418020E+05      0.1903693005E+06     -0.2188778922E+00
          0                 3           4            13   85     1      -0.1196770014E-02      14   85    2       0.4477552564E+01      0.6767934505E+01      0.1906418020E+05     -0.1196770014E-02

    ------------------------------------------------
       NWT REQUIRED            3 OUTER ITERATIONS 
       AND A TOTAL OF         23 INNER ITERATIONS.
    ------------------------------------------------

 NO OUTPUT CONTROL FOR STRESS PERIOD    5   TIME STEP    3

 SOLVING FOR HEAD 
                                                   Max.-Head-Change                        Max.-Flux-Residual
  Residual-Control   Outer-Iter.   Inner-Iter.     Column Row Layer    Max.-Head-Change    Column Row Layer    Max.-Flux-Residual            L2-New               L2-Old           Solver-Max-Delh
          0                 1          10            81   45     1       0.2104674094E+01      81   46    1       0.6585451796E+05      0.1666206609E+06      0.6767934505E+01      0.2104674094E+01
          0                 2           9            81   45     1      -0.1920876417E+00      81   45    1      -0.6505172629E+04      0.1602416722E+05      0.1666206609E+06     -0.1920876417E+00
          0                 3           4            15   85     1      -0.9283399825E-03      14   85    2       0.3461986953E+01      0.6156250574E+01      0.1602416722E+05     -0.9283399825E-03

    ------------------------------------------------
       NWT REQUIRED            3 OUTER ITERATIONS 
       AND A TOTAL OF         23 INNER ITERATIONS.
    ------------------------------------------------

 NO OUTPUT CONTROL FOR STRESS PERIOD    5   TIME STEP    4

 SOLVING FOR HEAD 
                                                   Max.-Head-Change                        Max.-Flux-Residual
  Residual-Control   Outer-Iter.   Inner-Iter.     Column Row Layer    Max.-Head-Change    Column Row Layer    Max.-Flux-Residual            L2-New               L2-Old           Solver-Max-Delh
          0                 1          10            81   46     1       0.1880193094E+01      81   46    1       0.6027938536E+05      0.1499472659E+06      0.6156250574E+01      0.1880193094E+01
          0                 2           9            81   46     1      -0.1710405053E+00      81   46    1      -0.6033237484E+04      0.1555477214E+05      0.1499472659E+06     -0.1710405053E+00
          0                 3           4            83   45     2      -0.9775364801E-03      83   45    2      -0.8093401050E+01      0.1052111235E+02      0.1555477214E+05     -0.9775364801E-03

    ------------------------------------------------
       NWT REQUIRED            3 OUTER ITERATIONS 
       AND A TOTAL OF         23 INNER ITERATIONS.
    ------------------------------------------------

 NO OUTPUT CONTROL FOR STRESS PERIOD    5   TIME STEP    5

 SOLVING FOR HEAD 
                                                   Max.-Head-Change                        Max.-Flux-Residual
  Residual-Control   Outer-Iter.   Inner-Iter.     Column Row Layer    Max.-Head-Change    Column Row Layer    Max.-Flux-Residual            L2-New               L2-Old           Solver-Max-Delh
          0                 1          10            81   46     1       0.1826898128E+01      81   46    1       0.5861549499E+05      0.1381417911E+06      0.1052111235E+02      0.1826898128E+01
          0                 2           9            81   46     1      -0.1662009558E+00      81   46    1      -0.5866784151E+04      0.1382363403E+05      0.1381417911E+06     -0.1662009558E+00
          0                 3           4            16   85     2      -0.7563136477E-03      14   85    2       0.2281670585E+01      0.3961950638E+01      0.1382363403E+05     -0.7563136477E-03

    ------------------------------------------------
       NWT REQUIRED            3 OUTER ITERATIONS 
       AND A TOTAL OF         23 INNER ITERATIONS.
    ------------------------------------------------

 NO OUTPUT CONTROL FOR STRESS PERIOD    5   TIME STEP    6

 SOLVING FOR HEAD 
                                                   Max.-Head-Change                        Max.-Flux-Residual
  Residual-Control   Outer-Iter.   Inner-Iter.     Column Row Layer    Max.-Head-Change    Column Row Layer    Max.-Flux-Residual            L2-New               L2-Old           Solver-Max-Delh
          0                 1          10            81   46     1       0.1773753961E+01      81   46    1       0.5695434042E+05      0.1286766967E+06      0.3961950638E+01      0.1773753961E+01
          0                 2           9            81   46     1      -0.1613661793E+00      81   46    1      -0.5700528303E+04      0.1290239442E+05      0.1286766967E+06     -0.1613661793E+00
          0                 3           4            16   85     2      -0.7423511272E-03      14   85    2       0.1931752085E+01      0.3566224925E+01      0.1290239442E+05     -0.7423511272E-03

    ------------------------------------------------
       NWT REQUIRED            3 OUTER ITERATIONS 
       AND A TOTAL OF         23 INNER ITERATIONS.
    ------------------------------------------------

 NO OUTPUT CONTROL FOR STRESS PERIOD    5   TIME STEP    7

 SOLVING FOR HEAD 
                                                   Max.-Head-Change                        Max.-Flux-Residual
  Residual-Control   Outer-Iter.   Inner-Iter.     Column Row Layer    Max.-Head-Change    Column Row Layer    Max.-Flux-Residual            L2-New               L2-Old           Solver-Max-Delh
          0                 1          10            81   46     1       0.1721029251E+01      81   46    1       0.5529814645E+05      0.1208752991E+06      0.3566224925E+01      0.1721029251E+01
          0                 2           9            81   46     1      -0.1568398683E+00      81   46    1      -0.5548689116E+04      0.1199539767E+05      0.1208752991E+06     -0.1568398683E+00
          0                 3           4            16   85     2      -0.7191857019E-03      81   45    1       0.1397971883E+02      0.1436292767E+02      0.1199539767E+05     -0.7191857019E-03

    ------------------------------------------------
       NWT REQUIRED            3 OUTER ITERATIONS 
       AND A TOTAL OF         23 INNER ITERATIONS.
    ------------------------------------------------

 NO OUTPUT CONTROL FOR STRESS PERIOD    5   TIME STEP    8

 SOLVING FOR HEAD 
                                                   Max.-Head-Change                        Max.-Flux-Residual
  Residual-Control   Outer-Iter.   Inner-Iter.     Column Row Layer    Max.-Head-Change    Column Row Layer    Max.-Flux-Residual            L2-New               L2-Old           Solver-Max-Delh
          0                 1          10            81   46     1       0.1667360164E+01      81   46    1       0.5364577580E+05      0.1143418981E+06      0.1436292767E+02      0.1667360164E+01
          0                 2           9            81   46     1      -0.1510239483E+00      81   46    1      -0.5370694492E+04      0.1093239268E+05      0.1143418981E+06     -0.1510239483E+00
          0                 3           4            16   85     2      -0.6914760206E-03      55  118    1      -0.1016937196E+02      0.1062486520E+02      0.1093239268E+05     -0.6914760206E-03

    ------------------------------------------------
       NWT REQUIRED            3 OUTER ITERATIONS 
       AND A TOTAL OF         23 INNER ITERATIONS.
    ------------------------------------------------

 NO OUTPUT CONTROL FOR STRESS PERIOD    5   TIME STEP    9

 SOLVING FOR HEAD 
                                                   Max.-Head-Change                        Max.-Flux-Residual
  Residual-Control   Outer-Iter.   Inner-Iter.     Column Row Layer    Max.-Head-Change    Column Row Layer    Max.-Flux-Residual            L2-New               L2-Old           Solver-Max-Delh
          0                 1          10            81   46     1       0.1616908837E+01      81   46    1       0.5200503391E+05      0.1096397493E+06      0.1062486520E+02      0.1616908837E+01
          0                 2           9            81   46     1      -0.1471207593E+00      81   46    1      -0.5206199884E+04      0.1141071799E+05      0.1096397493E+06     -0.1471207593E+00
          0                 3           4            16   85     2      -0.6620681216E-03      14   85    2       0.1322025450E+01      0.2974493152E+01      0.1141071799E+05     -0.6620681216E-03

    ------------------------------------------------
       NWT REQUIRED            3 OUTER ITERATIONS 
       AND A TOTAL OF         23 INNER ITERATIONS.
    ------------------------------------------------

 NO OUTPUT CONTROL FOR STRESS PERIOD    5   TIME STEP   10

 SOLVING FOR HEAD 
                                                   Max.-Head-Change                        Max.-Flux-Residual
  Residual-Control   Outer-Iter.   Inner-Iter.     Column Row Layer    Max.-Head-Change    Column Row Layer    Max.-Flux-Residual            L2-New               L2-Old           Solver-Max-Delh
          0                 1          10            81   46     1       0.1567138621E+01      81   46    1       0.5040909428E+05      0.1053633417E+06      0.2974493152E+01      0.1567138621E+01
          0                 2           9            81   46     1      -0.1425879777E+00      81   46    1      -0.5046250935E+04      0.1054038255E+05      0.1053633417E+06     -0.1425879777E+00
          0                 3           4            16   85     2      -0.6327395974E-03      14   85    2       0.1199869904E+01      0.3014306138E+01      0.1054038255E+05     -0.6327395974E-03

    ------------------------------------------------
       NWT REQUIRED            3 OUTER ITERATIONS 
       AND A TOTAL OF         23 INNER ITERATIONS.
    ------------------------------------------------

 NO OUTPUT CONTROL FOR STRESS PERIOD    5   TIME STEP   11

 SOLVING FOR HEAD 
                                                   Max.-Head-Change                        Max.-Flux-Residual
  Residual-Control   Outer-Iter.   Inner-Iter.     Column Row Layer    Max.-Head-Change    Column Row Layer    Max.-Flux-Residual            L2-New               L2-Old           Solver-Max-Delh
          0                 1          10            81   46     1       0.1518804512E+01      81   46    1       0.4885805462E+05      0.1015292481E+06      0.3014306138E+01      0.1518804512E+01
          0                 2           9            81   46     1      -0.1381862288E+00      81   46    1      -0.4890811479E+04      0.1015652015E+05      0.1015292481E+06     -0.1381862288E+00
          0                 3           4            16   85     2      -0.6044566137E-03      14   85    2       0.1100899176E+01      0.2792158212E+01      0.1015652015E+05     -0.6044566137E-03

    ------------------------------------------------
       NWT REQUIRED            3 OUTER ITERATIONS 
       AND A TOTAL OF         23 INNER ITERATIONS.
    ------------------------------------------------

 OUTPUT CONTROL FOR STRESS PERIOD    5   TIME STEP   12
    SAVE BUDGET
 UBDSV1 SAVING "         STORAGE" ON UNIT  39 AT TIME STEP 12, STRESS PERIOD   5
 UBDSV2 SAVING "   CONSTANT HEAD" ON UNIT  39 AT TIME STEP 12, STRESS PERIOD   5
 UBDSV1 SAVING "FLOW RIGHT FACE " ON UNIT  39 AT TIME STEP 12, STRESS PERIOD   5
 UBDSV1 SAVING "FLOW FRONT FACE " ON UNIT  39 AT TIME STEP 12, STRESS PERIOD   5
 UBDSV1 SAVING "FLOW LOWER FACE " ON UNIT  39 AT TIME STEP 12, STRESS PERIOD   5
 UBDSV3 SAVING "              ET" ON UNIT  39 AT TIME STEP 12, STRESS PERIOD   5
 UBDSV3 SAVING "        RECHARGE" ON UNIT  39 AT TIME STEP 12, STRESS PERIOD   5
1
  VOLUMETRIC BUDGET FOR ENTIRE MODEL AT END OF TIME STEP   12, STRESS PERIOD   5
  ------------------------------------------------------------------------------

     CUMULATIVE VOLUMES      L**3       RATES FOR THIS TIME STEP      L**3/T
     ------------------                 ------------------------

           IN:                                      IN:
           ---                                      ---
             STORAGE =  2237059328.0000               STORAGE =     1071498.3750
       CONSTANT HEAD =  1897890944.0000         CONSTANT HEAD =     1043361.3125
               WELLS =   147263232.0000                 WELLS =      203598.0000
                  ET =           0.0000                    ET =           0.0000
            RECHARGE = 20202797056.0000              RECHARGE =    11292591.0000

            TOTAL IN = 24485011456.0000              TOTAL IN =    13611049.0000

          OUT:                                     OUT:
          ----                                     ----
             STORAGE =  2590305024.0000               STORAGE =     1414552.1250
       CONSTANT HEAD =  7722997760.0000         CONSTANT HEAD =     4416484.0000
               WELLS =           0.0000                 WELLS =           0.0000
                  ET = 14172130304.0000                    ET =     7780042.5000
            RECHARGE =           0.0000              RECHARGE =           0.0000

           TOTAL OUT = 24485433344.0000             TOTAL OUT =    13611078.0000

            IN - OUT =     -421888.0000              IN - OUT =         -29.0000

 PERCENT DISCREPANCY =          -0.00     PERCENT DISCREPANCY =          -0.00






         TIME SUMMARY AT END OF TIME STEP   12 IN STRESS PERIOD    5
                    SECONDS     MINUTES      HOURS       DAYS        YEARS
                    -----------------------------------------------------------
   TIME STEP LENGTH 2.63520E+06  43920.      732.00      30.500     8.35044E-02
 STRESS PERIOD TIME 3.16224E+07 5.27040E+05  8784.0      366.00      1.0021    
         TOTAL TIME 1.57853E+08 2.63088E+06  43848.      1827.0      5.0021    
1
1
                            STRESS PERIOD NO.    6, LENGTH =   365.0000    
                            -----------------------------------------------

                              NUMBER OF TIME STEPS =    12

                               MULTIPLIER FOR DELT =     1.000

                            INITIAL TIME STEP SIZE =   30.41667    

 WELL NO.  LAYER   ROW   COL   STRESS RATE         
 --------------------------------------------------
      1      2     85     15      0.5406E+05
      2      3     85     15      0.5967E+05
      3      2     85     16      0.5108E+05

      3 WELLS

 REUSING SURF FROM LAST STRESS PERIOD

 REUSING EVTR FROM LAST STRESS PERIOD

 REUSING EXDP FROM LAST STRESS PERIOD



                           RECHARGE
 READING ON UNIT   16 WITH FORMAT: (15F5.0)            


     63 TIME-VARIANT SPECIFIED-HEAD CELLS

 SOLVING FOR HEAD 
                                                   Max.-Head-Change                        Max.-Flux-Residual
  Residual-Control   Outer-Iter.   Inner-Iter.     Column Row Layer    Max.-Head-Change    Column Row Layer    Max.-Flux-Residual            L2-New               L2-Old           Solver-Max-Delh
          0                 1          11            14   85     2      -0.1162384861E+03      13   85    2      -0.7494700784E+05      0.3341821192E+06      0.2792158212E+01     -0.1162384861E+03
          0                 2           9            16   85     2      -0.4213660611E+01      56   47    1      -0.6892351144E+04      0.3229494120E+05      0.3341821192E+06     -0.4213660611E+01
          0                 3           4            16   85     2      -0.1993947671E+00      14   85    2      -0.3441665777E+03      0.6535442445E+03      0.3229494120E+05     -0.1993947671E+00
          0                 4           2            16   85     2      -0.9374672003E-02      16   84    2       0.3153985613E+02      0.4825112795E+02      0.6535442445E+03     -0.9374672003E-02

    ------------------------------------------------
       NWT REQUIRED            4 OUTER ITERATIONS 
       AND A TOTAL OF         26 INNER ITERATIONS.
    ------------------------------------------------

 NO OUTPUT CONTROL FOR STRESS PERIOD    6   TIME STEP    1

 SOLVING FOR HEAD 
                                                   Max.-Head-Change                        Max.-Flux-Residual
  Residual-Control   Outer-Iter.   Inner-Iter.     Column Row Layer    Max.-Head-Change    Column Row Layer    Max.-Flux-Residual            L2-New               L2-Old           Solver-Max-Delh
          0                 1          11            15   85     3       0.2228822402E+01      13   85    3      -0.6561646820E+05      0.2165933192E+06      0.4825112795E+02      0.2228822402E+01
          0                 2           9            15   85     3      -0.1988459438E+00      13   85    3       0.6533533383E+04      0.2162497433E+05      0.2165933192E+06     -0.1988459438E+00
          0                 3           4            16   85     2      -0.3827058388E-02      92   51    2      -0.1144631260E+02      0.1920181003E+02      0.2162497433E+05     -0.3827058388E-02

    ------------------------------------------------
       NWT REQUIRED            3 OUTER ITERATIONS 
       AND A TOTAL OF         24 INNER ITERATIONS.
    ------------------------------------------------

 NO OUTPUT CONTROL FOR STRESS PERIOD    6   TIME STEP    2

 SOLVING FOR HEAD 
                                                   Max.-Head-Change                        Max.-Flux-Residual
  Residual-Control   Outer-Iter.   Inner-Iter.     Column Row Layer    Max.-Head-Change    Column Row Layer    Max.-Flux-Residual            L2-New               L2-Old           Solver-Max-Delh
          0                 1          10            16   85     3       0.1489360163E+01      15   85    3       0.3834119008E+05      0.1667949967E+06      0.1920181003E+02      0.1489360163E+01
          0                 2           9            16   85     3      -0.1336540044E+00      15   85    3      -0.3843471331E+04      0.1664118703E+05      0.1667949967E+06     -0.1336540044E+00
          0                 3           4            16   85     2      -0.2934046123E-02      15   85    2       0.3851986552E+01      0.6782704802E+01      0.1664118703E+05     -0.2934046123E-02

    ------------------------------------------------
       NWT REQUIRED            3 OUTER ITERATIONS 
       AND A TOTAL OF         23 INNER ITERATIONS.
    ------------------------------------------------

 NO OUTPUT CONTROL FOR STRESS PERIOD    6   TIME STEP    3

 INTERPOLATION FOR HEAD OBS# 5684, ID 1179-6-115   CHANGED BECAUSE AT LEAST ONE
 NEIGHBORING CELL REQUIRED FOR INTERPOLATION IS DRY OR INACTIVE (OBS2BAS7SE)

 SOLVING FOR HEAD 
                                                   Max.-Head-Change                        Max.-Flux-Residual
  Residual-Control   Outer-Iter.   Inner-Iter.     Column Row Layer    Max.-Head-Change    Column Row Layer    Max.-Flux-Residual            L2-New               L2-Old           Solver-Max-Delh
          0                 1          10            16   85     3       0.1164234678E+01      81   45    1      -0.3028672613E+05      0.1422073144E+06      0.6782704802E+01      0.1164234678E+01
          0                 2           9            77   46     2       0.1532213008E+00      81   45    1       0.3213556425E+04      0.1424610759E+05      0.1422073144E+06      0.1532213008E+00
          0                 3           4            77   46     2      -0.1393013817E-01      81   45    1       0.1050891072E+03      0.1569651444E+03      0.1424610759E+05     -0.1393013817E-01
          0                 4           1            16   85     2      -0.1081473492E-03      15   85    2      -0.1202288298E+00      0.2667637295E+00      0.1569651444E+03     -0.1081473492E-03

    ------------------------------------------------
       NWT REQUIRED            4 OUTER ITERATIONS 
       AND A TOTAL OF         24 INNER ITERATIONS.
    ------------------------------------------------

 NO OUTPUT CONTROL FOR STRESS PERIOD    6   TIME STEP    4

 SOLVING FOR HEAD 
                                                   Max.-Head-Change                        Max.-Flux-Residual
  Residual-Control   Outer-Iter.   Inner-Iter.     Column Row Layer    Max.-Head-Change    Column Row Layer    Max.-Flux-Residual            L2-New               L2-Old           Solver-Max-Delh
          0                 1          10            81   45     1      -0.1015726479E+01      81   45    1      -0.2886304570E+05      0.1275034282E+06      0.2667637295E+00     -0.1015726479E+01
          0                 2           9            81   45     1       0.1730165033E+00      81   45    1       0.5950608828E+04      0.1377152728E+05      0.1275034282E+06      0.1730165033E+00
          0                 3           4            16   85     2      -0.1829548826E-02      15   85    2       0.1965878758E+01      0.4218551343E+01      0.1377152728E+05     -0.1829548826E-02

    ------------------------------------------------
       NWT REQUIRED            3 OUTER ITERATIONS 
       AND A TOTAL OF         23 INNER ITERATIONS.
    ------------------------------------------------

 NO OUTPUT CONTROL FOR STRESS PERIOD    6   TIME STEP    5

 SOLVING FOR HEAD 
                                                   Max.-Head-Change                        Max.-Flux-Residual
  Residual-Control   Outer-Iter.   Inner-Iter.     Column Row Layer    Max.-Head-Change    Column Row Layer    Max.-Flux-Residual            L2-New               L2-Old           Solver-Max-Delh
          0                 1          10            81   45     1      -0.8037562400E+00      81   45    1      -0.2511599325E+05      0.1171117773E+06      0.4218551343E+01     -0.8037562400E+00
          0                 2           9            45   39     2       0.8401527942E-01      81   45    1       0.2510161951E+04      0.1178348334E+05      0.1171117773E+06      0.8401527942E-01
          0                 3           5            45   39     2      -0.7637963396E-02      45   39    2      -0.1405342964E+03      0.1481145955E+03      0.1178348334E+05     -0.7637963396E-02

    ------------------------------------------------
       NWT REQUIRED            3 OUTER ITERATIONS 
       AND A TOTAL OF         24 INNER ITERATIONS.
    ------------------------------------------------

 NO OUTPUT CONTROL FOR STRESS PERIOD    6   TIME STEP    6

 SOLVING FOR HEAD 
                                                   Max.-Head-Change                        Max.-Flux-Residual
  Residual-Control   Outer-Iter.   Inner-Iter.     Column Row Layer    Max.-Head-Change    Column Row Layer    Max.-Flux-Residual            L2-New               L2-Old           Solver-Max-Delh
          0                 1          10            81   45     1      -0.6972505741E+00      81   45    1      -0.2177794724E+05      0.1096116679E+06      0.1481145955E+03     -0.6972505741E+00
          0                 2           9            81   45     1       0.6336455415E-01      81   45    1       0.2176734218E+04      0.1096030946E+05      0.1096116679E+06      0.6336455415E-01
          0                 3           4            16   85     2      -0.1258897702E-02      15   85    2       0.1277118020E+01      0.3281584921E+01      0.1096030946E+05     -0.1258897702E-02

    ------------------------------------------------
       NWT REQUIRED            3 OUTER ITERATIONS 
       AND A TOTAL OF         23 INNER ITERATIONS.
    ------------------------------------------------

 NO OUTPUT CONTROL FOR STRESS PERIOD    6   TIME STEP    7

 SOLVING FOR HEAD 
                                                   Max.-Head-Change                        Max.-Flux-Residual
  Residual-Control   Outer-Iter.   Inner-Iter.     Column Row Layer    Max.-Head-Change    Column Row Layer    Max.-Flux-Residual            L2-New               L2-Old           Solver-Max-Delh
          0                 1          10            81   45     1      -0.6051384957E+00      81   45    1      -0.1889200628E+05      0.1039451844E+06      0.3281584921E+01     -0.6051384957E+00
          0                 2           9            81   45     1       0.5499689115E-01      81   45    1       0.1888419259E+04      0.1039330738E+05      0.1039451844E+06      0.5499689115E-01
          0                 3           4            16   85     2      -0.1080418242E-02      15   85    2       0.1096205955E+01      0.3059121442E+01      0.1039330738E+05     -0.1080418242E-02

    ------------------------------------------------
       NWT REQUIRED            3 OUTER ITERATIONS 
       AND A TOTAL OF         23 INNER ITERATIONS.
    ------------------------------------------------

 NO OUTPUT CONTROL FOR STRESS PERIOD    6   TIME STEP    8

 SOLVING FOR HEAD 
                                                   Max.-Head-Change                        Max.-Flux-Residual
  Residual-Control   Outer-Iter.   Inner-Iter.     Column Row Layer    Max.-Head-Change    Column Row Layer    Max.-Flux-Residual            L2-New               L2-Old           Solver-Max-Delh
          0                 1          10            81   45     1      -0.5254457745E+00      81   45    1      -0.1639605800E+05      0.9945287993E+05      0.3059121442E+01     -0.5254457745E+00
          0                 2           9            81   45     1       0.4775662580E-01      81   45    1       0.1639031050E+04      0.9943563362E+04      0.9945287993E+05      0.4775662580E-01
          0                 3           4            16   85     2      -0.9451697128E-03      15   85    2       0.9683337205E+00      0.2915502623E+01      0.9943563362E+04     -0.9451697128E-03

    ------------------------------------------------
       NWT REQUIRED            3 OUTER ITERATIONS 
       AND A TOTAL OF         23 INNER ITERATIONS.
    ------------------------------------------------

 NO OUTPUT CONTROL FOR STRESS PERIOD    6   TIME STEP    9

 INTERPOLATION FOR HEAD OBS# 1010, ID 2643-6-284   CHANGED BECAUSE AT LEAST ONE
 NEIGHBORING CELL REQUIRED FOR INTERPOLATION IS DRY OR INACTIVE (OBS2BAS7SE)

 SOLVING FOR HEAD 
                                                   Max.-Head-Change                        Max.-Flux-Residual
  Residual-Control   Outer-Iter.   Inner-Iter.     Column Row Layer    Max.-Head-Change    Column Row Layer    Max.-Flux-Residual            L2-New               L2-Old           Solver-Max-Delh
          0                 1          10            81   45     1      -0.4564740054E+00      81   45    1      -0.1423667875E+05      0.9581718278E+05      0.2915502623E+01     -0.4564740054E+00
          0                 2           9            81   45     1       0.4148978311E-01      81   45    1       0.1423245943E+04      0.9579992887E+04      0.9581718278E+05      0.4148978311E-01
          0                 3           4            16   85     2      -0.8412662221E-03      24   57    3      -0.1767290939E+01      0.3338525248E+01      0.9579992887E+04     -0.8412662221E-03

    ------------------------------------------------
       NWT REQUIRED            3 OUTER ITERATIONS 
       AND A TOTAL OF         23 INNER ITERATIONS.
    ------------------------------------------------

 NO OUTPUT CONTROL FOR STRESS PERIOD    6   TIME STEP   10

 SOLVING FOR HEAD 
                                                   Max.-Head-Change                        Max.-Flux-Residual
  Residual-Control   Outer-Iter.   Inner-Iter.     Column Row Layer    Max.-Head-Change    Column Row Layer    Max.-Flux-Residual            L2-New               L2-Old           Solver-Max-Delh
          0                 1          10            81   45     1      -0.3967622762E+00      81   46    1      -0.1249812732E+05      0.9281046344E+05      0.3338525248E+01     -0.3967622762E+00
          0                 2           9            81   45     1       0.3606403429E-01      81   46    1       0.1249434054E+04      0.9278945820E+04      0.9281046344E+05      0.3606403429E-01
          0                 3           4            16   85     2      -0.7594178800E-03      81   46    1      -0.1196367426E+01      0.3193444678E+01      0.9278945820E+04     -0.7594178800E-03

    ------------------------------------------------
       NWT REQUIRED            3 OUTER ITERATIONS 
       AND A TOTAL OF         23 INNER ITERATIONS.
    ------------------------------------------------

 NO OUTPUT CONTROL FOR STRESS PERIOD    6   TIME STEP   11

 SOLVING FOR HEAD 
                                                   Max.-Head-Change                        Max.-Flux-Residual
  Residual-Control   Outer-Iter.   Inner-Iter.     Column Row Layer    Max.-Head-Change    Column Row Layer    Max.-Flux-Residual            L2-New               L2-Old           Solver-Max-Delh
          0                 1          10            81   46     1      -0.3728535722E+00      81   46    1      -0.1207473601E+05      0.9027359898E+05      0.3193444678E+01     -0.3728535722E+00
          0                 2           9            81   46     1       0.3359908169E-01      81   46    1       0.1195574231E+04      0.9022308969E+04      0.9027359898E+05      0.3359908169E-01
          0                 3           4            17   85     2      -0.6983871971E-03      82   52    1      -0.1839668000E+01      0.3184519480E+01      0.9022308969E+04     -0.6983871971E-03

    ------------------------------------------------
       NWT REQUIRED            3 OUTER ITERATIONS 
       AND A TOTAL OF         23 INNER ITERATIONS.
    ------------------------------------------------

 OUTPUT CONTROL FOR STRESS PERIOD    6   TIME STEP   12
    SAVE BUDGET
    SAVE HEAD FOR LAYERS:   1  2  3
 UBDSV1 SAVING "         STORAGE" ON UNIT  39 AT TIME STEP 12, STRESS PERIOD   6
 UBDSV2 SAVING "   CONSTANT HEAD" ON UNIT  39 AT TIME STEP 12, STRESS PERIOD   6
 UBDSV1 SAVING "FLOW RIGHT FACE " ON UNIT  39 AT TIME STEP 12, STRESS PERIOD   6
 UBDSV1 SAVING "FLOW FRONT FACE " ON UNIT  39 AT TIME STEP 12, STRESS PERIOD   6
 UBDSV1 SAVING "FLOW LOWER FACE " ON UNIT  39 AT TIME STEP 12, STRESS PERIOD   6
 UBDSV3 SAVING "              ET" ON UNIT  39 AT TIME STEP 12, STRESS PERIOD   6
 UBDSV3 SAVING "        RECHARGE" ON UNIT  39 AT TIME STEP 12, STRESS PERIOD   6

 HEAD WILL BE SAVED ON UNIT   31 AT END OF TIME STEP   12, STRESS PERIOD    6
1
  VOLUMETRIC BUDGET FOR ENTIRE MODEL AT END OF TIME STEP   12, STRESS PERIOD   6
  ------------------------------------------------------------------------------

     CUMULATIVE VOLUMES      L**3       RATES FOR THIS TIME STEP      L**3/T
     ------------------                 ------------------------

           IN:                                      IN:
           ---                                      ---
             STORAGE =  2543726848.0000               STORAGE =      610713.1875
       CONSTANT HEAD =  2270181120.0000         CONSTANT HEAD =     1012760.0625
               WELLS =   207419328.0000                 WELLS =      164811.0000
                  ET =           0.0000                    ET =           0.0000
            RECHARGE = 25174079488.0000              RECHARGE =    13619969.0000

            TOTAL IN = 30195406848.0000              TOTAL IN =    15408253.0000

          OUT:                                     OUT:
          ----                                     ----
             STORAGE =  3747374336.0000               STORAGE =     2783213.7500
       CONSTANT HEAD =  9369577472.0000         CONSTANT HEAD =     4570528.0000
               WELLS =           0.0000                 WELLS =           0.0000
                  ET = 17078893568.0000                    ET =     8054538.5000
            RECHARGE =           0.0000              RECHARGE =           0.0000

           TOTAL OUT = 30195845120.0000             TOTAL OUT =    15408280.0000

            IN - OUT =     -438272.0000              IN - OUT =         -27.0000

 PERCENT DISCREPANCY =          -0.00     PERCENT DISCREPANCY =          -0.00






         TIME SUMMARY AT END OF TIME STEP   12 IN STRESS PERIOD    6
                    SECONDS     MINUTES      HOURS       DAYS        YEARS
                    -----------------------------------------------------------
   TIME STEP LENGTH 2.62800E+06  43800.      730.00      30.417     8.32763E-02
 STRESS PERIOD TIME 3.15360E+07 5.25600E+05  8760.0      365.00     0.99932    
         TOTAL TIME 1.89389E+08 3.15648E+06  52608.      2192.0      6.0014    
1
1
                            STRESS PERIOD NO.    7, LENGTH =   365.0000    
                            -----------------------------------------------

                              NUMBER OF TIME STEPS =    12

                               MULTIPLIER FOR DELT =     1.000

                            INITIAL TIME STEP SIZE =   30.41667    

 WELL NO.  LAYER   ROW   COL   STRESS RATE         
 --------------------------------------------------
      1      2     85     17      0.4511E+05
      2      3     85     17      0.5370E+05
      3      2     85     18      0.3914E+05

      3 WELLS

 REUSING SURF FROM LAST STRESS PERIOD

 REUSING EVTR FROM LAST STRESS PERIOD

 REUSING EXDP FROM LAST STRESS PERIOD



                           RECHARGE
 READING ON UNIT   16 WITH FORMAT: (15F5.0)            


     63 TIME-VARIANT SPECIFIED-HEAD CELLS

 SOLVING FOR HEAD 
                                                   Max.-Head-Change                        Max.-Flux-Residual
  Residual-Control   Outer-Iter.   Inner-Iter.     Column Row Layer    Max.-Head-Change    Column Row Layer    Max.-Flux-Residual            L2-New               L2-Old           Solver-Max-Delh
          0                 1          11            17   85     2       0.9666043618E+02      67   47    1       0.8833588729E+05      0.3752451200E+06      0.3184519480E+01      0.9666043618E+02
          0                 2           9            16   85     2       0.3847113919E+01      67   47    1      -0.8923242821E+04      0.3650627555E+05      0.3752451200E+06      0.3847113919E+01
          0                 3           4            17   85     2      -0.2025110474E+00      15   85    2      -0.2733148204E+03      0.4265897261E+03      0.3650627555E+05     -0.2025110474E+00
          0                 4           2            17   85     2      -0.1178255873E-01      15   85    2       0.8955540131E+01      0.1599259150E+02      0.4265897261E+03     -0.1178255873E-01
          0                 5           2            17   85     2      -0.6842386301E-03      17   85    2      -0.3595756181E+00      0.6816561379E+00      0.1599259150E+02     -0.6842386301E-03

    ------------------------------------------------
       NWT REQUIRED            5 OUTER ITERATIONS 
       AND A TOTAL OF         28 INNER ITERATIONS.
    ------------------------------------------------

 NO OUTPUT CONTROL FOR STRESS PERIOD    7   TIME STEP    1

 SOLVING FOR HEAD 
                                                   Max.-Head-Change                        Max.-Flux-Residual
  Residual-Control   Outer-Iter.   Inner-Iter.     Column Row Layer    Max.-Head-Change    Column Row Layer    Max.-Flux-Residual            L2-New               L2-Old           Solver-Max-Delh
          0                 1          10            17   85     3       0.2206169919E+01      70   47    1       0.6670240611E+05      0.2700433524E+06      0.6816561379E+00      0.2206169919E+01
          0                 2           9            17   85     3      -0.1988136649E+00      69   47    1      -0.7195496961E+04      0.2726609724E+05      0.2700433524E+06     -0.1988136649E+00
          0                 3           4            17   85     2      -0.3864559609E-02      69   46    1      -0.4597097682E+02      0.4670736083E+02      0.2726609724E+05     -0.3864559609E-02

    ------------------------------------------------
       NWT REQUIRED            3 OUTER ITERATIONS 
       AND A TOTAL OF         23 INNER ITERATIONS.
    ------------------------------------------------

 NO OUTPUT CONTROL FOR STRESS PERIOD    7   TIME STEP    2

 SOLVING FOR HEAD 
                                                   Max.-Head-Change                        Max.-Flux-Residual
  Residual-Control   Outer-Iter.   Inner-Iter.     Column Row Layer    Max.-Head-Change    Column Row Layer    Max.-Flux-Residual            L2-New               L2-Old           Solver-Max-Delh
          0                 1          10            17   85     3       0.1447441465E+01      70   47    1       0.5805316219E+05      0.2167848982E+06      0.4670736083E+02      0.1447441465E+01
          0                 2           9            71   47     1      -0.1509745465E+00      71   47    1      -0.6897764231E+04      0.2237052146E+05      0.2167848982E+06     -0.1509745465E+00
          0                 3           4            18   85     2      -0.2635834266E-02      18   85    2      -0.1422165989E+01      0.3352219865E+01      0.2237052146E+05     -0.2635834266E-02

    ------------------------------------------------
       NWT REQUIRED            3 OUTER ITERATIONS 
       AND A TOTAL OF         23 INNER ITERATIONS.
    ------------------------------------------------

 NO OUTPUT CONTROL FOR STRESS PERIOD    7   TIME STEP    3

 SOLVING FOR HEAD 
                                                   Max.-Head-Change                        Max.-Flux-Residual
  Residual-Control   Outer-Iter.   Inner-Iter.     Column Row Layer    Max.-Head-Change    Column Row Layer    Max.-Flux-Residual            L2-New               L2-Old           Solver-Max-Delh
          0                 1          10            70   47     1       0.1251216990E+01      70   47    1       0.5067719012E+05      0.1849868798E+06      0.3352219865E+01      0.1251216990E+01
          0                 2           9            70   47     1      -0.1140539982E+00      70   47    1      -0.5084590601E+04      0.1850260922E+05      0.1849868798E+06     -0.1140539982E+00
          0                 3           4            18   85     2      -0.2168015465E-02      16   85    3       0.4531095687E+01      0.7087462422E+01      0.1850260922E+05     -0.2168015465E-02

    ------------------------------------------------
       NWT REQUIRED            3 OUTER ITERATIONS 
       AND A TOTAL OF         23 INNER ITERATIONS.
    ------------------------------------------------

 NO OUTPUT CONTROL FOR STRESS PERIOD    7   TIME STEP    4

 SOLVING FOR HEAD 
                                                   Max.-Head-Change                        Max.-Flux-Residual
  Residual-Control   Outer-Iter.   Inner-Iter.     Column Row Layer    Max.-Head-Change    Column Row Layer    Max.-Flux-Residual            L2-New               L2-Old           Solver-Max-Delh
          0                 1          10            70   47     1       0.1097598988E+01      70   47    1       0.4434486842E+05      0.1629082734E+06      0.7087462422E+01      0.1097598988E+01
          0                 2           9            70   47     1      -0.1000117343E+00      70   47    1      -0.4447136902E+04      0.1627452087E+05      0.1629082734E+06     -0.1000117343E+00
          0                 3           4            18   85     2      -0.1781732896E-02      64   27    1       0.2614077266E+02      0.2833409856E+02      0.1627452087E+05     -0.1781732896E-02

    ------------------------------------------------
       NWT REQUIRED            3 OUTER ITERATIONS 
       AND A TOTAL OF         23 INNER ITERATIONS.
    ------------------------------------------------

 NO OUTPUT CONTROL FOR STRESS PERIOD    7   TIME STEP    5

 SOLVING FOR HEAD 
                                                   Max.-Head-Change                        Max.-Flux-Residual
  Residual-Control   Outer-Iter.   Inner-Iter.     Column Row Layer    Max.-Head-Change    Column Row Layer    Max.-Flux-Residual            L2-New               L2-Old           Solver-Max-Delh
          0                 1          10            70   47     1       0.9654278535E+00      70   47    1       0.3890220636E+05      0.1468208907E+06      0.2833409856E+02      0.9654278535E+00
          0                 2           9            70   47     1      -0.8793932018E-01      70   47    1      -0.3899755234E+04      0.1469137331E+05      0.1468208907E+06     -0.8793932018E-01
          0                 3           4            18   85     2      -0.1489113948E-02      18   85    2      -0.8029804495E+00      0.2639245194E+01      0.1469137331E+05     -0.1489113948E-02

    ------------------------------------------------
       NWT REQUIRED            3 OUTER ITERATIONS 
       AND A TOTAL OF         23 INNER ITERATIONS.
    ------------------------------------------------

 NO OUTPUT CONTROL FOR STRESS PERIOD    7   TIME STEP    6

 SOLVING FOR HEAD 
                                                   Max.-Head-Change                        Max.-Flux-Residual
  Residual-Control   Outer-Iter.   Inner-Iter.     Column Row Layer    Max.-Head-Change    Column Row Layer    Max.-Flux-Residual            L2-New               L2-Old           Solver-Max-Delh
          0                 1          10            70   47     1       0.8515764179E+00      70   47    1       0.3421898840E+05      0.1345564976E+06      0.2639245194E+01      0.8515764179E+00
          0                 2           9            70   47     1      -0.7754449336E-01      70   47    1      -0.3429119028E+04      0.1340302778E+05      0.1345564976E+06     -0.7754449336E-01
          0                 3           4            18   85     2      -0.1264647467E-02      18   85    2      -0.6817775350E+00      0.2514187081E+01      0.1340302778E+05     -0.1264647467E-02

    ------------------------------------------------
       NWT REQUIRED            3 OUTER ITERATIONS 
       AND A TOTAL OF         23 INNER ITERATIONS.
    ------------------------------------------------

 NO OUTPUT CONTROL FOR STRESS PERIOD    7   TIME STEP    7

 SOLVING FOR HEAD 
                                                   Max.-Head-Change                        Max.-Flux-Residual
  Residual-Control   Outer-Iter.   Inner-Iter.     Column Row Layer    Max.-Head-Change    Column Row Layer    Max.-Flux-Residual            L2-New               L2-Old           Solver-Max-Delh
          0                 1          10            70   47     1       0.7534033255E+00      70   47    1       0.3018469570E+05      0.1249617512E+06      0.2514187081E+01      0.7534033255E+00
          0                 2           9            70   47     1      -0.6808180398E-01      70   47    1      -0.3023959370E+04      0.1239935840E+05      0.1249617512E+06     -0.6808180398E-01
          0                 3           4            18   85     2      -0.1091813679E-02      18   85    2      -0.5884576489E+00      0.2423113031E+01      0.1239935840E+05     -0.1091813679E-02

    ------------------------------------------------
       NWT REQUIRED            3 OUTER ITERATIONS 
       AND A TOTAL OF         23 INNER ITERATIONS.
    ------------------------------------------------

 NO OUTPUT CONTROL FOR STRESS PERIOD    7   TIME STEP    8

 SOLVING FOR HEAD 
                                                   Max.-Head-Change                        Max.-Flux-Residual
  Residual-Control   Outer-Iter.   Inner-Iter.     Column Row Layer    Max.-Head-Change    Column Row Layer    Max.-Flux-Residual            L2-New               L2-Old           Solver-Max-Delh
          0                 1          10            70   47     1       0.6714987375E+00      70   47    1       0.2672538683E+05      0.1174763680E+06      0.2423113031E+01      0.6714987375E+00
          0                 2           9            89   76     2      -0.8172929256E-01      70   47    1      -0.2898453184E+04      0.1180419180E+05      0.1174763680E+06     -0.8172929256E-01
          0                 3           4            89   76     2       0.3828122692E-02      89   76    2       0.2449406372E+01      0.4127152548E+01      0.1180419180E+05      0.3828122692E-02

    ------------------------------------------------
       NWT REQUIRED            3 OUTER ITERATIONS 
       AND A TOTAL OF         23 INNER ITERATIONS.
    ------------------------------------------------

 NO OUTPUT CONTROL FOR STRESS PERIOD    7   TIME STEP    9

 SOLVING FOR HEAD 
                                                   Max.-Head-Change                        Max.-Flux-Residual
  Residual-Control   Outer-Iter.   Inner-Iter.     Column Row Layer    Max.-Head-Change    Column Row Layer    Max.-Flux-Residual            L2-New               L2-Old           Solver-Max-Delh
          0                 1          10            69   47     1       0.5954792184E+00      70   47    1       0.2369127564E+05      0.1114853778E+06      0.4127152548E+01      0.5954792184E+00
          0                 2           9            69   47     1      -0.5426087550E-01      70   47    1      -0.2372999746E+04      0.1115010595E+05      0.1114853778E+06     -0.5426087550E-01
          0                 3           4            18   85     2      -0.8508423888E-03      18   85    2      -0.4583701082E+00      0.2325598292E+01      0.1115010595E+05     -0.8508423888E-03

    ------------------------------------------------
       NWT REQUIRED            3 OUTER ITERATIONS 
       AND A TOTAL OF         23 INNER ITERATIONS.
    ------------------------------------------------

 NO OUTPUT CONTROL FOR STRESS PERIOD    7   TIME STEP   10

 INTERPOLATION FOR HEAD OBS# 3766, ID 1405-7-308   CHANGED BECAUSE AT LEAST ONE
 NEIGHBORING CELL REQUIRED FOR INTERPOLATION IS DRY OR INACTIVE (OBS2BAS7SE)

 SOLVING FOR HEAD 
                                                   Max.-Head-Change                        Max.-Flux-Residual
  Residual-Control   Outer-Iter.   Inner-Iter.     Column Row Layer    Max.-Head-Change    Column Row Layer    Max.-Flux-Residual            L2-New               L2-Old           Solver-Max-Delh
          0                 1          10            69   47     1       0.5445308106E+00      69   47    1       0.2109555695E+05      0.1063957656E+06      0.2325598292E+01      0.5445308106E+00
          0                 2           9            69   47     1      -0.4960660479E-01      69   47    1      -0.2115765290E+04      0.1064643977E+05      0.1063957656E+06     -0.4960660479E-01
          0                 3           4            19   85     2      -0.7729973037E-03      78   46    1      -0.4239547048E+00      0.2246531665E+01      0.1064643977E+05     -0.7729973037E-03

    ------------------------------------------------
       NWT REQUIRED            3 OUTER ITERATIONS 
       AND A TOTAL OF         23 INNER ITERATIONS.
    ------------------------------------------------

 NO OUTPUT CONTROL FOR STRESS PERIOD    7   TIME STEP   11

 INTERPOLATION FOR HEAD OBS#  879, ID 2758-7-344   CHANGED BECAUSE AT LEAST ONE
 NEIGHBORING CELL REQUIRED FOR INTERPOLATION IS DRY OR INACTIVE (OBS2BAS7SE)

 INTERPOLATION FOR HEAD OBS# 6989, ID 683-7-360    CHANGED BECAUSE AT LEAST ONE
 NEIGHBORING CELL REQUIRED FOR INTERPOLATION IS DRY OR INACTIVE (OBS2BAS7SE)

 SOLVING FOR HEAD 
                                                   Max.-Head-Change                        Max.-Flux-Residual
  Residual-Control   Outer-Iter.   Inner-Iter.     Column Row Layer    Max.-Head-Change    Column Row Layer    Max.-Flux-Residual            L2-New               L2-Old           Solver-Max-Delh
          0                 1          10            69   47     1       0.4981827987E+00      69   47    1       0.1929117860E+05      0.1020958119E+06      0.2246531665E+01      0.4981827987E+00
          0                 2           9            69   47     1      -0.4537391183E-01      69   47    1      -0.1934206783E+04      0.1020968680E+05      0.1020958119E+06     -0.4537391183E-01
          0                 3           4            19   85     2      -0.7197167855E-03      78   46    1      -0.4242975079E+00      0.2205330607E+01      0.1020968680E+05     -0.7197167855E-03

    ------------------------------------------------
       NWT REQUIRED            3 OUTER ITERATIONS 
       AND A TOTAL OF         23 INNER ITERATIONS.
    ------------------------------------------------

 OUTPUT CONTROL FOR STRESS PERIOD    7   TIME STEP   12
    SAVE BUDGET
 UBDSV1 SAVING "         STORAGE" ON UNIT  39 AT TIME STEP 12, STRESS PERIOD   7
 UBDSV2 SAVING "   CONSTANT HEAD" ON UNIT  39 AT TIME STEP 12, STRESS PERIOD   7
 UBDSV1 SAVING "FLOW RIGHT FACE " ON UNIT  39 AT TIME STEP 12, STRESS PERIOD   7
 UBDSV1 SAVING "FLOW FRONT FACE " ON UNIT  39 AT TIME STEP 12, STRESS PERIOD   7
 UBDSV1 SAVING "FLOW LOWER FACE " ON UNIT  39 AT TIME STEP 12, STRESS PERIOD   7
 UBDSV3 SAVING "              ET" ON UNIT  39 AT TIME STEP 12, STRESS PERIOD   7
 UBDSV3 SAVING "        RECHARGE" ON UNIT  39 AT TIME STEP 12, STRESS PERIOD   7
1
  VOLUMETRIC BUDGET FOR ENTIRE MODEL AT END OF TIME STEP   12, STRESS PERIOD   7
  ------------------------------------------------------------------------------

     CUMULATIVE VOLUMES      L**3       RATES FOR THIS TIME STEP      L**3/T
     ------------------                 ------------------------

           IN:                                      IN:
           ---                                      ---
             STORAGE =  2760232448.0000               STORAGE =      503209.0312
       CONSTANT HEAD =  2629506560.0000         CONSTANT HEAD =      968270.4375
               WELLS =   257775168.0000                 WELLS =      137961.0000
                  ET =           0.0000                    ET =           0.0000
            RECHARGE = 30530394112.0000              RECHARGE =    14674819.0000

            TOTAL IN = 36177907712.0000              TOTAL IN =    16284260.0000

          OUT:                                     OUT:
          ----                                     ----
             STORAGE =  4939815936.0000               STORAGE =     2880819.5000
       CONSTANT HEAD = 11046462464.0000         CONSTANT HEAD =     4621277.0000
               WELLS =           0.0000                 WELLS =           0.0000
                  ET = 20192071680.0000                    ET =     8782192.0000
            RECHARGE =           0.0000              RECHARGE =           0.0000

           TOTAL OUT = 36178350080.0000             TOTAL OUT =    16284288.0000

            IN - OUT =     -442368.0000              IN - OUT =         -28.0000

 PERCENT DISCREPANCY =          -0.00     PERCENT DISCREPANCY =          -0.00






         TIME SUMMARY AT END OF TIME STEP   12 IN STRESS PERIOD    7
                    SECONDS     MINUTES      HOURS       DAYS        YEARS
                    -----------------------------------------------------------
   TIME STEP LENGTH 2.62800E+06  43800.      730.00      30.417     8.32763E-02
 STRESS PERIOD TIME 3.15360E+07 5.25600E+05  8760.0      365.00     0.99932    
         TOTAL TIME 2.20925E+08 3.68208E+06  61368.      2557.0      7.0007    
1
1
                            STRESS PERIOD NO.    8, LENGTH =   365.0000    
                            -----------------------------------------------

                              NUMBER OF TIME STEPS =    12

                               MULTIPLIER FOR DELT =     1.000

                            INITIAL TIME STEP SIZE =   30.41667    

 WELL NO.  LAYER   ROW   COL   STRESS RATE         
 --------------------------------------------------
      1      2     85     19      0.3437E+05
      2      3     85     19      0.3879E+05
      3      3     85     20      0.3998E+05

      3 WELLS

 REUSING SURF FROM LAST STRESS PERIOD

 REUSING EVTR FROM LAST STRESS PERIOD

 REUSING EXDP FROM LAST STRESS PERIOD



                           RECHARGE
 READING ON UNIT   16 WITH FORMAT: (15F5.0)            


     63 TIME-VARIANT SPECIFIED-HEAD CELLS

 SOLVING FOR HEAD 
                                                   Max.-Head-Change                        Max.-Flux-Residual
  Residual-Control   Outer-Iter.   Inner-Iter.     Column Row Layer    Max.-Head-Change    Column Row Layer    Max.-Flux-Residual            L2-New               L2-Old           Solver-Max-Delh
          0                 1          10            17   85     2      -0.9605830164E+02      81   45    1      -0.9585023235E+05      0.4430570720E+06      0.2205330607E+01     -0.9605830164E+02
          0                 2           9            92   77     2       0.5178044914E+01      81   45    1       0.9567959052E+04      0.4386190482E+05      0.4430570720E+06      0.5178044914E+01
          0                 3           5            92   77     2       0.2478124619E+00      85   50    1       0.1626523226E+03      0.3101300974E+03      0.4386190482E+05      0.2478124619E+00
          0                 4           2            92   77     2       0.1166236789E-01      92   77    2       0.6834884483E+01      0.1073575286E+02      0.3101300974E+03      0.1166236789E-01
          0                 5           2            19   85     2      -0.6216934216E-03      92   77    2       0.3216164883E+00      0.6309483573E+00      0.1073575286E+02     -0.6216934216E-03

    ------------------------------------------------
       NWT REQUIRED            5 OUTER ITERATIONS 
       AND A TOTAL OF         28 INNER ITERATIONS.
    ------------------------------------------------

 NO OUTPUT CONTROL FOR STRESS PERIOD    8   TIME STEP    1

 SOLVING FOR HEAD 
                                                   Max.-Head-Change                        Max.-Flux-Residual
  Residual-Control   Outer-Iter.   Inner-Iter.     Column Row Layer    Max.-Head-Change    Column Row Layer    Max.-Flux-Residual            L2-New               L2-Old           Solver-Max-Delh
          0                 1          10            81   45     1      -0.2693880138E+01      81   46    1      -0.8628725987E+05      0.3193344479E+06      0.6309483573E+00     -0.2693880138E+01
          0                 2           9            81   46     1       0.2430542265E+00      81   46    1       0.8617721194E+04      0.3221160446E+05      0.3193344479E+06      0.2430542265E+00
          0                 3           4            17   85     2       0.3962012790E-02      76   49    1       0.4475950396E+01      0.7506843743E+01      0.3221160446E+05      0.3962012790E-02

    ------------------------------------------------
       NWT REQUIRED            3 OUTER ITERATIONS 
       AND A TOTAL OF         23 INNER ITERATIONS.
    ------------------------------------------------

 NO OUTPUT CONTROL FOR STRESS PERIOD    8   TIME STEP    2

 SOLVING FOR HEAD 
                                                   Max.-Head-Change                        Max.-Flux-Residual
  Residual-Control   Outer-Iter.   Inner-Iter.     Column Row Layer    Max.-Head-Change    Column Row Layer    Max.-Flux-Residual            L2-New               L2-Old           Solver-Max-Delh
          0                 1          10            81   46     1      -0.2597839811E+01      81   46    1      -0.8373314887E+05      0.2591664661E+06      0.7506843743E+01     -0.2597839811E+01
          0                 2           9            81   46     1       0.2359195614E+00      81   46    1       0.8362481209E+04      0.2600114764E+05      0.2591664661E+06      0.2359195614E+00
          0                 3           4            17   85     2       0.2589724660E-02      87   51    1      -0.1542374362E+02      0.2494683434E+02      0.2600114764E+05      0.2589724660E-02

    ------------------------------------------------
       NWT REQUIRED            3 OUTER ITERATIONS 
       AND A TOTAL OF         23 INNER ITERATIONS.
    ------------------------------------------------

 NO OUTPUT CONTROL FOR STRESS PERIOD    8   TIME STEP    3

 SOLVING FOR HEAD 
                                                   Max.-Head-Change                        Max.-Flux-Residual
  Residual-Control   Outer-Iter.   Inner-Iter.     Column Row Layer    Max.-Head-Change    Column Row Layer    Max.-Flux-Residual            L2-New               L2-Old           Solver-Max-Delh
          0                 1          10            81   46     1      -0.2519142805E+01      81   46    1      -0.8122530777E+05      0.2218069711E+06      0.2494683434E+02     -0.2519142805E+01
          0                 2           9            81   46     1       0.2287667620E+00      81   46    1       0.8112012786E+04      0.2213003495E+05      0.2218069711E+06      0.2287667620E+00
          0                 3           4            19   85     2      -0.1833872284E-02      88   51    1      -0.1396266893E+01      0.3800056957E+01      0.2213003495E+05     -0.1833872284E-02

    ------------------------------------------------
       NWT REQUIRED            3 OUTER ITERATIONS 
       AND A TOTAL OF         23 INNER ITERATIONS.
    ------------------------------------------------

 NO OUTPUT CONTROL FOR STRESS PERIOD    8   TIME STEP    4

 SOLVING FOR HEAD 
                                                   Max.-Head-Change                        Max.-Flux-Residual
  Residual-Control   Outer-Iter.   Inner-Iter.     Column Row Layer    Max.-Head-Change    Column Row Layer    Max.-Flux-Residual            L2-New               L2-Old           Solver-Max-Delh
          0                 1          10            81   46     1      -0.2442072546E+01      81   46    1      -0.7876372960E+05      0.1956972135E+06      0.3800056957E+01     -0.2442072546E+01
          0                 2           9            81   46     1       0.2530560888E+00      81   46    1       0.9778418904E+04      0.2036345700E+05      0.1956972135E+06      0.2530560888E+00
          0                 3           4            19   85     2      -0.1420519558E-02      86   50    1       0.2616074423E+02      0.2962595649E+02      0.2036345700E+05     -0.1420519558E-02

    ------------------------------------------------
       NWT REQUIRED            3 OUTER ITERATIONS 
       AND A TOTAL OF         23 INNER ITERATIONS.
    ------------------------------------------------

 NO OUTPUT CONTROL FOR STRESS PERIOD    8   TIME STEP    5

 SOLVING FOR HEAD 
                                                   Max.-Head-Change                        Max.-Flux-Residual
  Residual-Control   Outer-Iter.   Inner-Iter.     Column Row Layer    Max.-Head-Change    Column Row Layer    Max.-Flux-Residual            L2-New               L2-Old           Solver-Max-Delh
          0                 1          10            81   46     1      -0.2145801853E+01      81   46    1      -0.7527699862E+05      0.1758665846E+06      0.2962595649E+02     -0.2145801853E+01
          0                 2           9            81   46     1       0.1949107857E+00      81   46    1       0.7519990849E+04      0.1757109359E+05      0.1758665846E+06      0.1949107857E+00
          0                 3           4            19   85     2      -0.1152033993E-02      85   48    2      -0.7148219514E+01      0.1101848918E+02      0.1757109359E+05     -0.1152033993E-02

    ------------------------------------------------
       NWT REQUIRED            3 OUTER ITERATIONS 
       AND A TOTAL OF         23 INNER ITERATIONS.
    ------------------------------------------------

 NO OUTPUT CONTROL FOR STRESS PERIOD    8   TIME STEP    6

 SOLVING FOR HEAD 
                                                   Max.-Head-Change                        Max.-Flux-Residual
  Residual-Control   Outer-Iter.   Inner-Iter.     Column Row Layer    Max.-Head-Change    Column Row Layer    Max.-Flux-Residual            L2-New               L2-Old           Solver-Max-Delh
          0                 1          10            81   46     1      -0.1913152172E+01      81   46    1      -0.6708731988E+05      0.1583359151E+06      0.1101848918E+02     -0.1913152172E+01
          0                 2           9            81   46     1       0.1737361404E+00      81   46    1       0.6694536676E+04      0.1580984365E+05      0.1583359151E+06      0.1737361404E+00
          0                 3           4            19   85     2      -0.9592153280E-03      80   52    1       0.8694302609E+01      0.1256677505E+02      0.1580984365E+05     -0.9592153280E-03

    ------------------------------------------------
       NWT REQUIRED            3 OUTER ITERATIONS 
       AND A TOTAL OF         23 INNER ITERATIONS.
    ------------------------------------------------

 NO OUTPUT CONTROL FOR STRESS PERIOD    8   TIME STEP    7

 INTERPOLATION FOR HEAD OBS#  633, ID 3016-8-222   CHANGED BECAUSE AT LEAST ONE
 NEIGHBORING CELL REQUIRED FOR INTERPOLATION IS DRY OR INACTIVE (OBS2BAS7SE)

 SOLVING FOR HEAD 
                                                   Max.-Head-Change                        Max.-Flux-Residual
  Residual-Control   Outer-Iter.   Inner-Iter.     Column Row Layer    Max.-Head-Change    Column Row Layer    Max.-Flux-Residual            L2-New               L2-Old           Solver-Max-Delh
          0                 1          10            81   46     1      -0.1707907390E+01      81   46    1      -0.5981439478E+05      0.1441757761E+06      0.1256677505E+02     -0.1707907390E+01
          0                 2           9            77   46     2       0.2019944689E+00      77   46    2       0.7972803390E+04      0.1645763444E+05      0.1441757761E+06      0.2019944689E+00
          0                 3           4            71   18     2       0.1209980218E-01      71   18    2       0.2339121753E+02      0.2476043337E+02      0.1645763444E+05      0.1209980218E-01
          0                 4           2            71   18     2       0.1777985129E-03      71   18    2       0.3377350550E+00      0.3608402596E+00      0.2476043337E+02      0.1777985129E-03

    ------------------------------------------------
       NWT REQUIRED            4 OUTER ITERATIONS 
       AND A TOTAL OF         25 INNER ITERATIONS.
    ------------------------------------------------

 NO OUTPUT CONTROL FOR STRESS PERIOD    8   TIME STEP    8

 SOLVING FOR HEAD 
                                                   Max.-Head-Change                        Max.-Flux-Residual
  Residual-Control   Outer-Iter.   Inner-Iter.     Column Row Layer    Max.-Head-Change    Column Row Layer    Max.-Flux-Residual            L2-New               L2-Old           Solver-Max-Delh
          0                 1          10            81   46     1      -0.1525104557E+01      81   46    1      -0.5339351649E+05      0.1325072618E+06      0.3608402596E+00     -0.1525104557E+01
          0                 2           9            81   46     1       0.1385903502E+00      81   46    1       0.5336748020E+04      0.1323684278E+05      0.1325072618E+06      0.1385903502E+00
          0                 3           4            20   83     2       0.9249213757E-03      82   50    1       0.3512968268E+01      0.4312042033E+01      0.1323684278E+05      0.9249213757E-03

    ------------------------------------------------
       NWT REQUIRED            3 OUTER ITERATIONS 
       AND A TOTAL OF         23 INNER ITERATIONS.
    ------------------------------------------------

 NO OUTPUT CONTROL FOR STRESS PERIOD    8   TIME STEP    9

 SOLVING FOR HEAD 
                                                   Max.-Head-Change                        Max.-Flux-Residual
  Residual-Control   Outer-Iter.   Inner-Iter.     Column Row Layer    Max.-Head-Change    Column Row Layer    Max.-Flux-Residual            L2-New               L2-Old           Solver-Max-Delh
          0                 1          10            81   46     1      -0.1362347222E+01      81   46    1      -0.4767799661E+05      0.1227448147E+06      0.4312042033E+01     -0.1362347222E+01
          0                 2           9            81   46     1       0.1238052540E+00      81   46    1       0.4765715411E+04      0.1226760373E+05      0.1227448147E+06      0.1238052540E+00
          0                 3           4            20   83     2       0.9028476560E-03      91   67    1       0.5666489303E+00      0.2347731223E+01      0.1226760373E+05      0.9028476560E-03

    ------------------------------------------------
       NWT REQUIRED            3 OUTER ITERATIONS 
       AND A TOTAL OF         23 INNER ITERATIONS.
    ------------------------------------------------

 NO OUTPUT CONTROL FOR STRESS PERIOD    8   TIME STEP   10

 SOLVING FOR HEAD 
                                                   Max.-Head-Change                        Max.-Flux-Residual
  Residual-Control   Outer-Iter.   Inner-Iter.     Column Row Layer    Max.-Head-Change    Column Row Layer    Max.-Flux-Residual            L2-New               L2-Old           Solver-Max-Delh
          0                 1          10            81   46     1      -0.1217409582E+01      81   46    1      -0.4258932924E+05      0.1146224085E+06      0.2347731223E+01     -0.1217409582E+01
          0                 2           9            81   46     1       0.1106377710E+00      81   46    1       0.4257262407E+04      0.1144222122E+05      0.1146224085E+06      0.1106377710E+00
          0                 3           4            20   83     2       0.8771781849E-03      91   67    1       0.5471080877E+00      0.2290817383E+01      0.1144222122E+05      0.8771781849E-03

    ------------------------------------------------
       NWT REQUIRED            3 OUTER ITERATIONS 
       AND A TOTAL OF         23 INNER ITERATIONS.
    ------------------------------------------------

 NO OUTPUT CONTROL FOR STRESS PERIOD    8   TIME STEP   11

 SOLVING FOR HEAD 
                                                   Max.-Head-Change                        Max.-Flux-Residual
  Residual-Control   Outer-Iter.   Inner-Iter.     Column Row Layer    Max.-Head-Change    Column Row Layer    Max.-Flux-Residual            L2-New               L2-Old           Solver-Max-Delh
          0                 1          10            81   46     1      -0.1088318255E+01      81   46    1      -0.3805790947E+05      0.1078186179E+06      0.2290817383E+01     -0.1088318255E+01
          0                 2           9            81   46     1       0.9890914114E-01      81   46    1       0.3804450408E+04      0.1078043441E+05      0.1078186179E+06      0.9890914114E-01
          0                 3           4            20   83     2       0.8492079313E-03      86   53    1       0.5590082677E+00      0.2295864889E+01      0.1078043441E+05      0.8492079313E-03

    ------------------------------------------------
       NWT REQUIRED            3 OUTER ITERATIONS 
       AND A TOTAL OF         23 INNER ITERATIONS.
    ------------------------------------------------

 OUTPUT CONTROL FOR STRESS PERIOD    8   TIME STEP   12
    SAVE BUDGET
 UBDSV1 SAVING "         STORAGE" ON UNIT  39 AT TIME STEP 12, STRESS PERIOD   8
 UBDSV2 SAVING "   CONSTANT HEAD" ON UNIT  39 AT TIME STEP 12, STRESS PERIOD   8
 UBDSV1 SAVING "FLOW RIGHT FACE " ON UNIT  39 AT TIME STEP 12, STRESS PERIOD   8
 UBDSV1 SAVING "FLOW FRONT FACE " ON UNIT  39 AT TIME STEP 12, STRESS PERIOD   8
 UBDSV1 SAVING "FLOW LOWER FACE " ON UNIT  39 AT TIME STEP 12, STRESS PERIOD   8
 UBDSV3 SAVING "              ET" ON UNIT  39 AT TIME STEP 12, STRESS PERIOD   8
 UBDSV3 SAVING "        RECHARGE" ON UNIT  39 AT TIME STEP 12, STRESS PERIOD   8
1
  VOLUMETRIC BUDGET FOR ENTIRE MODEL AT END OF TIME STEP   12, STRESS PERIOD   8
  ------------------------------------------------------------------------------

     CUMULATIVE VOLUMES      L**3       RATES FOR THIS TIME STEP      L**3/T
     ------------------                 ------------------------

           IN:                                      IN:
           ---                                      ---
             STORAGE =  3826586624.0000               STORAGE =     2262866.2500
       CONSTANT HEAD =  2993253888.0000         CONSTANT HEAD =     1006741.3125
               WELLS =   299070144.0000                 WELLS =      113137.0000
                  ET =           0.0000                    ET =           0.0000
            RECHARGE = 34021365760.0000              RECHARGE =     9564303.0000

            TOTAL IN = 41140277248.0000              TOTAL IN =    12947048.0000

          OUT:                                     OUT:
          ----                                     ----
             STORAGE =  5282928128.0000               STORAGE =      624734.9375
       CONSTANT HEAD = 12754616320.0000         CONSTANT HEAD =     4714540.0000
               WELLS =           0.0000                 WELLS =           0.0000
                  ET = 23103182848.0000                    ET =     7607799.0000
            RECHARGE =           0.0000              RECHARGE =           0.0000

           TOTAL OUT = 41140727808.0000             TOTAL OUT =    12947074.0000

            IN - OUT =     -450560.0000              IN - OUT =         -26.0000

 PERCENT DISCREPANCY =          -0.00     PERCENT DISCREPANCY =          -0.00






         TIME SUMMARY AT END OF TIME STEP   12 IN STRESS PERIOD    8
                    SECONDS     MINUTES      HOURS       DAYS        YEARS
                    -----------------------------------------------------------
   TIME STEP LENGTH 2.62800E+06  43800.      730.00      30.417     8.32763E-02
 STRESS PERIOD TIME 3.15360E+07 5.25600E+05  8760.0      365.00     0.99932    
         TOTAL TIME 2.52461E+08 4.20768E+06  70128.      2922.0      8.0000    
1
1
                            STRESS PERIOD NO.    9, LENGTH =   366.0000    
                            -----------------------------------------------

                              NUMBER OF TIME STEPS =    12

                               MULTIPLIER FOR DELT =     1.000

                            INITIAL TIME STEP SIZE =   30.50000    

 WELL NO.  LAYER   ROW   COL   STRESS RATE         
 --------------------------------------------------
      1      3     85     22      0.2387E+05
      2      3     85     23      0.2088E+05
      3      3     85     24      0.1790E+05

      3 WELLS

 REUSING SURF FROM LAST STRESS PERIOD

 REUSING EVTR FROM LAST STRESS PERIOD

 REUSING EXDP FROM LAST STRESS PERIOD



                           RECHARGE
 READING ON UNIT   16 WITH FORMAT: (15F5.0)            


     63 TIME-VARIANT SPECIFIED-HEAD CELLS

 SOLVING FOR HEAD 
                                                   Max.-Head-Change                        Max.-Flux-Residual
  Residual-Control   Outer-Iter.   Inner-Iter.     Column Row Layer    Max.-Head-Change    Column Row Layer    Max.-Flux-Residual            L2-New               L2-Old           Solver-Max-Delh
          0                 1          10            19   85     2      -0.7850663683E+02      79   49    1       0.4595210869E+05      0.2097432616E+06      0.2295864889E+01     -0.7850663683E+02
          0                 2           9            19   85     2       0.2211985650E+01      79   49    1      -0.4603997900E+04      0.2107285649E+05      0.2097432616E+06      0.2211985650E+01
          0                 3           4            19   85     2       0.1250169153E+00      19   85    2       0.6076857143E+02      0.6349126635E+02      0.2107285649E+05      0.1250169153E+00
          0                 4           2            19   85     2       0.7076593041E-02      19   85    2       0.3439211427E+01      0.3569055636E+01      0.6349126635E+02      0.7076593041E-02

    ------------------------------------------------
       NWT REQUIRED            4 OUTER ITERATIONS 
       AND A TOTAL OF         25 INNER ITERATIONS.
    ------------------------------------------------

 NO OUTPUT CONTROL FOR STRESS PERIOD    9   TIME STEP    1

 SOLVING FOR HEAD 
                                                   Max.-Head-Change                        Max.-Flux-Residual
  Residual-Control   Outer-Iter.   Inner-Iter.     Column Row Layer    Max.-Head-Change    Column Row Layer    Max.-Flux-Residual            L2-New               L2-Old           Solver-Max-Delh
          0                 1          10            19   85     3      -0.1903339854E+01      19   85    3      -0.4577103966E+05      0.1413909654E+06      0.3569055636E+01     -0.1903339854E+01
          0                 2           9            19   85     3       0.1708399151E+00      19   85    3       0.4563830805E+04      0.1415456551E+05      0.1413909654E+06      0.1708399151E+00
          0                 3           4            19   85     2       0.3450440580E-02      26   85    3      -0.9308006688E+01      0.1049687600E+02      0.1415456551E+05      0.3450440580E-02

    ------------------------------------------------
       NWT REQUIRED            3 OUTER ITERATIONS 
       AND A TOTAL OF         23 INNER ITERATIONS.
    ------------------------------------------------

 NO OUTPUT CONTROL FOR STRESS PERIOD    9   TIME STEP    2

 SOLVING FOR HEAD 
                                                   Max.-Head-Change                        Max.-Flux-Residual
  Residual-Control   Outer-Iter.   Inner-Iter.     Column Row Layer    Max.-Head-Change    Column Row Layer    Max.-Flux-Residual            L2-New               L2-Old           Solver-Max-Delh
          0                 1          10            19   85     3      -0.1415602831E+01      19   85    3      -0.3254793367E+05      0.1152382307E+06      0.1049687600E+02     -0.1415602831E+01
          0                 2           9            19   85     3       0.1270978643E+00      19   85    3       0.3248490017E+04      0.1154412822E+05      0.1152382307E+06      0.1270978643E+00
          0                 3           4            19   85     2       0.2575138135E-02      19   85    2       0.1250387956E+01      0.2570427928E+01      0.1154412822E+05      0.2575138135E-02

    ------------------------------------------------
       NWT REQUIRED            3 OUTER ITERATIONS 
       AND A TOTAL OF         23 INNER ITERATIONS.
    ------------------------------------------------

 NO OUTPUT CONTROL FOR STRESS PERIOD    9   TIME STEP    3

 SOLVING FOR HEAD 
                                                   Max.-Head-Change                        Max.-Flux-Residual
  Residual-Control   Outer-Iter.   Inner-Iter.     Column Row Layer    Max.-Head-Change    Column Row Layer    Max.-Flux-Residual            L2-New               L2-Old           Solver-Max-Delh
          0                 1          10            19   85     3      -0.1093737219E+01      19   85    3      -0.2420626841E+05      0.1010162516E+06      0.2570427928E+01     -0.1093737219E+01
          0                 2           9            19   85     3       0.9820317856E-01      19   85    3       0.2417371146E+04      0.1016251688E+05      0.1010162516E+06      0.9820317856E-01
          0                 3           4            19   85     2       0.1995721833E-02      19   85    2       0.9671419853E+00      0.2446503027E+01      0.1016251688E+05      0.1995721833E-02

    ------------------------------------------------
       NWT REQUIRED            3 OUTER ITERATIONS 
       AND A TOTAL OF         23 INNER ITERATIONS.
    ------------------------------------------------

 NO OUTPUT CONTROL FOR STRESS PERIOD    9   TIME STEP    4

 SOLVING FOR HEAD 
                                                   Max.-Head-Change                        Max.-Flux-Residual
  Residual-Control   Outer-Iter.   Inner-Iter.     Column Row Layer    Max.-Head-Change    Column Row Layer    Max.-Flux-Residual            L2-New               L2-Old           Solver-Max-Delh
          0                 1          10            23   85     3       0.9444889904E+00      19   85    3      -0.1870211590E+05      0.9183204919E+05      0.2446503027E+01      0.9444889904E+00
          0                 2           9            23   85     3      -0.8586889632E-01      19   85    3       0.1868399103E+04      0.9177691090E+04      0.9183204919E+05     -0.8586889632E-01
          0                 3           4            19   85     2       0.1593359857E-02      19   85    2       0.7726060379E+00      0.2069700864E+01      0.9177691090E+04      0.1593359857E-02

    ------------------------------------------------
       NWT REQUIRED            3 OUTER ITERATIONS 
       AND A TOTAL OF         23 INNER ITERATIONS.
    ------------------------------------------------

 NO OUTPUT CONTROL FOR STRESS PERIOD    9   TIME STEP    5

 SOLVING FOR HEAD 
                                                   Max.-Head-Change                        Max.-Flux-Residual
  Residual-Control   Outer-Iter.   Inner-Iter.     Column Row Layer    Max.-Head-Change    Column Row Layer    Max.-Flux-Residual            L2-New               L2-Old           Solver-Max-Delh
          0                 1          10            23   85     3       0.8617166560E+00      81   45    1       0.1583567164E+05      0.8551086404E+05      0.2069700864E+01      0.8617166560E+00
          0                 2           9            23   85     3      -0.7833648569E-01      81   45    1      -0.1583865443E+04      0.8544426249E+04      0.8551086404E+05     -0.7833648569E-01
          0                 3           4            19   85     2       0.1302069499E-02      19   85    2       0.6310578046E+00      0.1983402859E+01      0.8544426249E+04      0.1302069499E-02

    ------------------------------------------------
       NWT REQUIRED            3 OUTER ITERATIONS 
       AND A TOTAL OF         23 INNER ITERATIONS.
    ------------------------------------------------

 NO OUTPUT CONTROL FOR STRESS PERIOD    9   TIME STEP    6

 SOLVING FOR HEAD 
                                                   Max.-Head-Change                        Max.-Flux-Residual
  Residual-Control   Outer-Iter.   Inner-Iter.     Column Row Layer    Max.-Head-Change    Column Row Layer    Max.-Flux-Residual            L2-New               L2-Old           Solver-Max-Delh
          0                 1          10            23   85     3       0.7884427247E+00      12   10    1      -0.1536901334E+05      0.8099853635E+05      0.1983402859E+01      0.7884427247E+00
          0                 2           9            23   85     3      -0.7166912998E-01      12   10    1       0.1521358267E+04      0.8096689782E+04      0.8099853635E+05     -0.7166912998E-01
          0                 3           4            19   85     2       0.1087461130E-02      19   85    2       0.5268286089E+00      0.1915139848E+01      0.8096689782E+04      0.1087461130E-02

    ------------------------------------------------
       NWT REQUIRED            3 OUTER ITERATIONS 
       AND A TOTAL OF         23 INNER ITERATIONS.
    ------------------------------------------------

 NO OUTPUT CONTROL FOR STRESS PERIOD    9   TIME STEP    7

 SOLVING FOR HEAD 
                                                   Max.-Head-Change                        Max.-Flux-Residual
  Residual-Control   Outer-Iter.   Inner-Iter.     Column Row Layer    Max.-Head-Change    Column Row Layer    Max.-Flux-Residual            L2-New               L2-Old           Solver-Max-Delh
          0                 1          10            23   85     3       0.7236676600E+00      12   10    1      -0.1541423200E+05      0.7769095285E+05      0.1915139848E+01      0.7236676600E+00
          0                 2           9            23   85     3      -0.6569599999E-01      12   10    1       0.1525741969E+04      0.7757478725E+04      0.7769095285E+05     -0.6569599999E-01
          0                 3           4            87   63     1       0.1063112835E-02      87   63    2      -0.3277953158E+01      0.4820181268E+01      0.7757478725E+04      0.1063112835E-02

    ------------------------------------------------
       NWT REQUIRED            3 OUTER ITERATIONS 
       AND A TOTAL OF         23 INNER ITERATIONS.
    ------------------------------------------------

 NO OUTPUT CONTROL FOR STRESS PERIOD    9   TIME STEP    8

 SOLVING FOR HEAD 
                                                   Max.-Head-Change                        Max.-Flux-Residual
  Residual-Control   Outer-Iter.   Inner-Iter.     Column Row Layer    Max.-Head-Change    Column Row Layer    Max.-Flux-Residual            L2-New               L2-Old           Solver-Max-Delh
          0                 1          10            87   63     1      -0.7184977838E+00      12   10    1      -0.1545313390E+05      0.7521614237E+05      0.4820181268E+01     -0.7184977838E+00
          0                 2           9            23   85     3      -0.6058725577E-01      12   10    1       0.1529507013E+04      0.7519295675E+04      0.7521614237E+05     -0.6058725577E-01
          0                 3           4            19   85     2       0.8090404391E-03      32   36    2      -0.1737174307E+02      0.1821298566E+02      0.7519295675E+04      0.8090404391E-03

    ------------------------------------------------
       NWT REQUIRED            3 OUTER ITERATIONS 
       AND A TOTAL OF         23 INNER ITERATIONS.
    ------------------------------------------------

 NO OUTPUT CONTROL FOR STRESS PERIOD    9   TIME STEP    9

 SOLVING FOR HEAD 
                                                   Max.-Head-Change                        Max.-Flux-Residual
  Residual-Control   Outer-Iter.   Inner-Iter.     Column Row Layer    Max.-Head-Change    Column Row Layer    Max.-Flux-Residual            L2-New               L2-Old           Solver-Max-Delh
          0                 1          10            23   85     3       0.6160764455E+00      12   10    1      -0.1548340817E+05      0.7337096342E+05      0.1821298566E+02      0.6160764455E+00
          0                 2           9            23   85     3      -0.5598997696E-01      12   10    1       0.1532429642E+04      0.7330183170E+04      0.7337096342E+05     -0.5598997696E-01
          0                 3           4            19   85     2       0.6905884702E-03      17   85    3      -0.5653976724E+00      0.1960356791E+01      0.7330183170E+04      0.6905884702E-03

    ------------------------------------------------
       NWT REQUIRED            3 OUTER ITERATIONS 
       AND A TOTAL OF         23 INNER ITERATIONS.
    ------------------------------------------------

 NO OUTPUT CONTROL FOR STRESS PERIOD    9   TIME STEP   10

 SOLVING FOR HEAD 
                                                   Max.-Head-Change                        Max.-Flux-Residual
  Residual-Control   Outer-Iter.   Inner-Iter.     Column Row Layer    Max.-Head-Change    Column Row Layer    Max.-Flux-Residual            L2-New               L2-Old           Solver-Max-Delh
          0                 1          10            23   85     3       0.5712659510E+00      12   10    1      -0.1550465688E+05      0.7193285598E+05      0.1960356791E+01      0.5712659510E+00
          0                 2           9            23   85     3      -0.5191465354E-01      12   10    1       0.1534469016E+04      0.7184798987E+04      0.7193285598E+05     -0.5191465354E-01
          0                 3           4            19   85     2       0.6050581001E-03      51  121    2       0.4677145876E+01      0.4995724732E+01      0.7184798987E+04      0.6050581001E-03

    ------------------------------------------------
       NWT REQUIRED            3 OUTER ITERATIONS 
       AND A TOTAL OF         23 INNER ITERATIONS.
    ------------------------------------------------

 NO OUTPUT CONTROL FOR STRESS PERIOD    9   TIME STEP   11

 SOLVING FOR HEAD 
                                                   Max.-Head-Change                        Max.-Flux-Residual
  Residual-Control   Outer-Iter.   Inner-Iter.     Column Row Layer    Max.-Head-Change    Column Row Layer    Max.-Flux-Residual            L2-New               L2-Old           Solver-Max-Delh
          0                 1          10            23   85     3       0.5314443116E+00      12   10    1      -0.1552479227E+05      0.7081876399E+05      0.4995724732E+01      0.5314443116E+00
          0                 2           9            23   85     3      -0.4829502493E-01      12   10    1       0.1536399027E+04      0.7073255105E+04      0.7081876399E+05     -0.4829502493E-01
          0                 3           3            19   85     2       0.5327687946E-03      88   67    1       0.3782138801E+00      0.1725151171E+01      0.7073255105E+04      0.5327687946E-03

    ------------------------------------------------
       NWT REQUIRED            3 OUTER ITERATIONS 
       AND A TOTAL OF         22 INNER ITERATIONS.
    ------------------------------------------------

 OUTPUT CONTROL FOR STRESS PERIOD    9   TIME STEP   12
    SAVE BUDGET
 UBDSV1 SAVING "         STORAGE" ON UNIT  39 AT TIME STEP 12, STRESS PERIOD   9
 UBDSV2 SAVING "   CONSTANT HEAD" ON UNIT  39 AT TIME STEP 12, STRESS PERIOD   9
 UBDSV1 SAVING "FLOW RIGHT FACE " ON UNIT  39 AT TIME STEP 12, STRESS PERIOD   9
 UBDSV1 SAVING "FLOW FRONT FACE " ON UNIT  39 AT TIME STEP 12, STRESS PERIOD   9
 UBDSV1 SAVING "FLOW LOWER FACE " ON UNIT  39 AT TIME STEP 12, STRESS PERIOD   9
 UBDSV3 SAVING "              ET" ON UNIT  39 AT TIME STEP 12, STRESS PERIOD   9
 UBDSV3 SAVING "        RECHARGE" ON UNIT  39 AT TIME STEP 12, STRESS PERIOD   9
1
  VOLUMETRIC BUDGET FOR ENTIRE MODEL AT END OF TIME STEP   12, STRESS PERIOD   9
  ------------------------------------------------------------------------------

     CUMULATIVE VOLUMES      L**3       RATES FOR THIS TIME STEP      L**3/T
     ------------------                 ------------------------

           IN:                                      IN:
           ---                                      ---
             STORAGE =  4283187968.0000               STORAGE =     1176494.0000
       CONSTANT HEAD =  3348196096.0000         CONSTANT HEAD =      948676.8750
               WELLS =   322001472.0000                 WELLS =       62654.0000
                  ET =           0.0000                    ET =           0.0000
            RECHARGE = 38320545792.0000              RECHARGE =    11746443.0000

            TOTAL IN = 46273929216.0000              TOTAL IN =    13934268.0000

          OUT:                                     OUT:
          ----                                     ----
             STORAGE =  5768901632.0000               STORAGE =     1054206.3750
       CONSTANT HEAD = 14520677376.0000         CONSTANT HEAD =     4894246.0000
               WELLS =           0.0000                 WELLS =           0.0000
                  ET = 25984829440.0000                    ET =     7985841.5000
            RECHARGE =           0.0000              RECHARGE =           0.0000

           TOTAL OUT = 46274408448.0000             TOTAL OUT =    13934294.0000

            IN - OUT =     -479232.0000              IN - OUT =         -26.0000

 PERCENT DISCREPANCY =          -0.00     PERCENT DISCREPANCY =          -0.00






         TIME SUMMARY AT END OF TIME STEP   12 IN STRESS PERIOD    9
                    SECONDS     MINUTES      HOURS       DAYS        YEARS
                    -----------------------------------------------------------
   TIME STEP LENGTH 2.63520E+06  43920.      732.00      30.500     8.35044E-02
 STRESS PERIOD TIME 3.16224E+07 5.27040E+05  8784.0      366.00      1.0021    
         TOTAL TIME 2.84083E+08 4.73472E+06  78912.      3288.0      9.0021    
1
1
                            STRESS PERIOD NO.   10, LENGTH =   365.0000    
                            -----------------------------------------------

                              NUMBER OF TIME STEPS =    12

                               MULTIPLIER FOR DELT =     1.000

                            INITIAL TIME STEP SIZE =   30.41667    

 WELL NO.  LAYER   ROW   COL   STRESS RATE         
 --------------------------------------------------
      1      3     85     26       5967.    
      2      1     18     29     -0.3838E+05
      3      2     18     29     -0.1361E+06

      3 WELLS

 REUSING SURF FROM LAST STRESS PERIOD

 REUSING EVTR FROM LAST STRESS PERIOD

 REUSING EXDP FROM LAST STRESS PERIOD



                           RECHARGE
 READING ON UNIT   16 WITH FORMAT: (15F5.0)            


     63 TIME-VARIANT SPECIFIED-HEAD CELLS

 SOLVING FOR HEAD 
                                                   Max.-Head-Change                        Max.-Flux-Residual
  Residual-Control   Outer-Iter.   Inner-Iter.     Column Row Layer    Max.-Head-Change    Column Row Layer    Max.-Flux-Residual            L2-New               L2-Old           Solver-Max-Delh
          0                 1          10            92   77     2       0.1310515515E+02      29   18    2      -0.1360912022E+06      0.3075544106E+06      0.1725151171E+01      0.1310515515E+02
          0                 2           9            92   77     2      -0.5399947627E+00      29   18    2       0.1360912035E+05      0.3079425956E+05      0.3075544106E+06     -0.5399947627E+00
          0                 3           4            92   77     2      -0.2723899870E-01      69   47    1      -0.6060063560E+02      0.1212378819E+03      0.3079425956E+05     -0.2723899870E-01
          0                 4           2            92   77     2      -0.1371477220E-02      27   59    2       0.1142077975E+01      0.1811713141E+01      0.1212378819E+03     -0.1371477220E-02

    ------------------------------------------------
       NWT REQUIRED            4 OUTER ITERATIONS 
       AND A TOTAL OF         25 INNER ITERATIONS.
    ------------------------------------------------

 NO OUTPUT CONTROL FOR STRESS PERIOD   10   TIME STEP    1

 INTERPOLATION FOR HEAD OBS# 3767, ID 1405-10-34   CHANGED BECAUSE AT LEAST ONE
 NEIGHBORING CELL REQUIRED FOR INTERPOLATION IS DRY OR INACTIVE (OBS2BAS7SE)

 SOLVING FOR HEAD 
                                                   Max.-Head-Change                        Max.-Flux-Residual
  Residual-Control   Outer-Iter.   Inner-Iter.     Column Row Layer    Max.-Head-Change    Column Row Layer    Max.-Flux-Residual            L2-New               L2-Old           Solver-Max-Delh
          0                 1          10            81   45     1       0.1300017818E+01      76   48    1       0.5253210518E+05      0.2195283202E+06      0.1811713141E+01      0.1300017818E+01
          0                 2           9            69   47     1      -0.1198300067E+00      69   47    1      -0.5503623458E+04      0.2261052589E+05      0.2195283202E+06     -0.1198300067E+00
          0                 3           3            69   46     1      -0.1443775844E-02      69   46    1      -0.5800423926E+02      0.5871228199E+02      0.2261052589E+05     -0.1443775844E-02

    ------------------------------------------------
       NWT REQUIRED            3 OUTER ITERATIONS 
       AND A TOTAL OF         22 INNER ITERATIONS.
    ------------------------------------------------

 NO OUTPUT CONTROL FOR STRESS PERIOD   10   TIME STEP    2

 SOLVING FOR HEAD 
                                                   Max.-Head-Change                        Max.-Flux-Residual
  Residual-Control   Outer-Iter.   Inner-Iter.     Column Row Layer    Max.-Head-Change    Column Row Layer    Max.-Flux-Residual            L2-New               L2-Old           Solver-Max-Delh
          0                 1          10            81   45     1       0.1138536232E+01      72   48    1       0.4238988252E+05      0.1872437544E+06      0.5871228199E+02      0.1138536232E+01
          0                 2           9            81   45     1      -0.1044864002E+00      72   48    1      -0.4263103129E+04      0.1867768866E+05      0.1872437544E+06     -0.1044864002E+00
          0                 3           3            19   85     2       0.3886157244E-03      82   45    1      -0.2272360883E+01      0.4218234304E+01      0.1867768866E+05      0.3886157244E-03

    ------------------------------------------------
       NWT REQUIRED            3 OUTER ITERATIONS 
       AND A TOTAL OF         22 INNER ITERATIONS.
    ------------------------------------------------

 NO OUTPUT CONTROL FOR STRESS PERIOD   10   TIME STEP    3

 INTERPOLATION FOR HEAD OBS# 6299, ID 766-10-104   CHANGED BECAUSE AT LEAST ONE
 NEIGHBORING CELL REQUIRED FOR INTERPOLATION IS DRY OR INACTIVE (OBS2BAS7SE)

 SOLVING FOR HEAD 
                                                   Max.-Head-Change                        Max.-Flux-Residual
  Residual-Control   Outer-Iter.   Inner-Iter.     Column Row Layer    Max.-Head-Change    Column Row Layer    Max.-Flux-Residual            L2-New               L2-Old           Solver-Max-Delh
          0                 1          10            81   45     1       0.9957800769E+00      70   47    1       0.3630369805E+05      0.1676898154E+06      0.4218234304E+01      0.9957800769E+00
          0                 2           9            81   45     1      -0.9056284135E-01      70   47    1      -0.3639560141E+04      0.1675850489E+05      0.1676898154E+06     -0.9056284135E-01
          0                 3           3            19   85     2       0.3571273720E-03      26   64    2      -0.3773785718E+00      0.2592596256E+01      0.1675850489E+05      0.3571273720E-03

    ------------------------------------------------
       NWT REQUIRED            3 OUTER ITERATIONS 
       AND A TOTAL OF         22 INNER ITERATIONS.
    ------------------------------------------------

 NO OUTPUT CONTROL FOR STRESS PERIOD   10   TIME STEP    4

 SOLVING FOR HEAD 
                                                   Max.-Head-Change                        Max.-Flux-Residual
  Residual-Control   Outer-Iter.   Inner-Iter.     Column Row Layer    Max.-Head-Change    Column Row Layer    Max.-Flux-Residual            L2-New               L2-Old           Solver-Max-Delh
          0                 1          10            81   45     1       0.8722744665E+00      70   47    1       0.3158313646E+05      0.1545354887E+06      0.2592596256E+01      0.8722744665E+00
          0                 2           9            81   45     1      -0.7932490606E-01      70   47    1      -0.3165092208E+04      0.1524459612E+05      0.1545354887E+06     -0.7932490606E-01
          0                 3           3            19   85     2       0.3304110565E-03      29   57    2      -0.5047848336E+00      0.2596065151E+01      0.1524459612E+05      0.3304110565E-03

    ------------------------------------------------
       NWT REQUIRED            3 OUTER ITERATIONS 
       AND A TOTAL OF         22 INNER ITERATIONS.
    ------------------------------------------------

 NO OUTPUT CONTROL FOR STRESS PERIOD   10   TIME STEP    5

 SOLVING FOR HEAD 
                                                   Max.-Head-Change                        Max.-Flux-Residual
  Residual-Control   Outer-Iter.   Inner-Iter.     Column Row Layer    Max.-Head-Change    Column Row Layer    Max.-Flux-Residual            L2-New               L2-Old           Solver-Max-Delh
          0                 1          10            81   45     1       0.7646274729E+00      70   47    1       0.2757422676E+05      0.1453916242E+06      0.2596065151E+01      0.7646274729E+00
          0                 2           9            81   45     1      -0.6953095907E-01      70   47    1      -0.2762460329E+04      0.1449390509E+05      0.1453916242E+06     -0.6953095907E-01
          0                 3           3            25   78     2       0.3352735787E-03      28   62    3       0.6842765212E+00      0.2612991376E+01      0.1449390509E+05      0.3352735787E-03

    ------------------------------------------------
       NWT REQUIRED            3 OUTER ITERATIONS 
       AND A TOTAL OF         22 INNER ITERATIONS.
    ------------------------------------------------

 NO OUTPUT CONTROL FOR STRESS PERIOD   10   TIME STEP    6

 SOLVING FOR HEAD 
                                                   Max.-Head-Change                        Max.-Flux-Residual
  Residual-Control   Outer-Iter.   Inner-Iter.     Column Row Layer    Max.-Head-Change    Column Row Layer    Max.-Flux-Residual            L2-New               L2-Old           Solver-Max-Delh
          0                 1          10            81   45     1       0.6707836798E+00      12    8    1      -0.2656379530E+05      0.1387680114E+06      0.2612991376E+01      0.6707836798E+00
          0                 2           9            81   45     1      -0.6099380068E-01      12    8    1       0.2609969294E+04      0.1384183049E+05      0.1387680114E+06     -0.6099380068E-01
          0                 3           3            25   78     2       0.3424204705E-03      13   14    1       0.4065172672E+00      0.2370698614E+01      0.1384183049E+05      0.3424204705E-03

    ------------------------------------------------
       NWT REQUIRED            3 OUTER ITERATIONS 
       AND A TOTAL OF         22 INNER ITERATIONS.
    ------------------------------------------------

 NO OUTPUT CONTROL FOR STRESS PERIOD   10   TIME STEP    7

 INTERPOLATION FOR HEAD OBS# 3508, ID 1473-10-213  CHANGED BECAUSE AT LEAST ONE
 NEIGHBORING CELL REQUIRED FOR INTERPOLATION IS DRY OR INACTIVE (OBS2BAS7SE)

 SOLVING FOR HEAD 
                                                   Max.-Head-Change                        Max.-Flux-Residual
  Residual-Control   Outer-Iter.   Inner-Iter.     Column Row Layer    Max.-Head-Change    Column Row Layer    Max.-Flux-Residual            L2-New               L2-Old           Solver-Max-Delh
          0                 1          10            12    5     3      -0.6123865661E+00      12    8    1      -0.2677164809E+05      0.1338695821E+06      0.2370698614E+01     -0.6123865661E+00
          0                 2           9            12    5     3       0.5559554290E-01      12    8    1       0.2630047900E+04      0.1335888594E+05      0.1338695821E+06      0.5559554290E-01
          0                 3           4            69   47     1       0.1569632797E-02      69   47    1       0.8806952831E+02      0.9633775284E+02      0.1335888594E+05      0.1569632797E-02

    ------------------------------------------------
       NWT REQUIRED            3 OUTER ITERATIONS 
       AND A TOTAL OF         23 INNER ITERATIONS.
    ------------------------------------------------

 NO OUTPUT CONTROL FOR STRESS PERIOD   10   TIME STEP    8

 SOLVING FOR HEAD 
                                                   Max.-Head-Change                        Max.-Flux-Residual
  Residual-Control   Outer-Iter.   Inner-Iter.     Column Row Layer    Max.-Head-Change    Column Row Layer    Max.-Flux-Residual            L2-New               L2-Old           Solver-Max-Delh
          0                 1          10            12    5     3      -0.6160984245E+00      12    8    1      -0.2692199827E+05      0.1302058807E+06      0.9633775284E+02     -0.6160984245E+00
          0                 2           9            12    5     3       0.5593105296E-01      12    8    1       0.2644536293E+04      0.1296265835E+05      0.1302058807E+06      0.5593105296E-01
          0                 3           3            25    8     1       0.3692978029E-02      25    8    1       0.4306514131E+02      0.4447849167E+02      0.1296265835E+05      0.3692978029E-02

    ------------------------------------------------
       NWT REQUIRED            3 OUTER ITERATIONS 
       AND A TOTAL OF         22 INNER ITERATIONS.
    ------------------------------------------------

 NO OUTPUT CONTROL FOR STRESS PERIOD   10   TIME STEP    9

 SOLVING FOR HEAD 
                                                   Max.-Head-Change                        Max.-Flux-Residual
  Residual-Control   Outer-Iter.   Inner-Iter.     Column Row Layer    Max.-Head-Change    Column Row Layer    Max.-Flux-Residual            L2-New               L2-Old           Solver-Max-Delh
          0                 1          10            12    5     3      -0.6192855369E+00      12    8    1      -0.2703341658E+05      0.1275070968E+06      0.4447849167E+02     -0.6192855369E+00
          0                 2           9            12    5     3       0.5621944236E-01      12    8    1       0.2655232087E+04      0.1264139065E+05      0.1275070968E+06      0.5621944236E-01
          0                 3           3            25   78     2       0.3646590447E-03      24   57    3      -0.2704918468E+01      0.3561725459E+01      0.1264139065E+05      0.3646590447E-03

    ------------------------------------------------
       NWT REQUIRED            3 OUTER ITERATIONS 
       AND A TOTAL OF         22 INNER ITERATIONS.
    ------------------------------------------------

 NO OUTPUT CONTROL FOR STRESS PERIOD   10   TIME STEP   10

 SOLVING FOR HEAD 
                                                   Max.-Head-Change                        Max.-Flux-Residual
  Residual-Control   Outer-Iter.   Inner-Iter.     Column Row Layer    Max.-Head-Change    Column Row Layer    Max.-Flux-Residual            L2-New               L2-Old           Solver-Max-Delh
          0                 1          10            12    5     3      -0.6220755017E+00      12    8    1      -0.2711886658E+05      0.1255147633E+06      0.3561725459E+01     -0.6220755017E+00
          0                 2           9            77   46     2       0.7217883814E+00      77   46    2       0.4332367922E+04      0.1322465453E+05      0.1255147633E+06      0.7217883814E+00
          0                 3           3            77   46     2      -0.8143543505E-01      77   46    2      -0.5655913870E+03      0.5931253830E+03      0.1322465453E+05     -0.8143543505E-01
          0                 4           2            78   46     2      -0.1963112547E-03      78   46    2      -0.7431423369E+01      0.7444445310E+01      0.5931253830E+03     -0.1963112547E-03

    ------------------------------------------------
       NWT REQUIRED            4 OUTER ITERATIONS 
       AND A TOTAL OF         24 INNER ITERATIONS.
    ------------------------------------------------

 NO OUTPUT CONTROL FOR STRESS PERIOD   10   TIME STEP   11

 SOLVING FOR HEAD 
                                                   Max.-Head-Change                        Max.-Flux-Residual
  Residual-Control   Outer-Iter.   Inner-Iter.     Column Row Layer    Max.-Head-Change    Column Row Layer    Max.-Flux-Residual            L2-New               L2-Old           Solver-Max-Delh
          0                 1          10            12    5     3      -0.6245095747E+00      12    8    1      -0.2718277213E+05      0.1241744291E+06      0.7444445310E+01     -0.6245095747E+00
          0                 2           9            12    5     3       0.5669202476E-01      12    8    1       0.2669479683E+04      0.1239503131E+05      0.1241744291E+06      0.5669202476E-01
          0                 3           3            25   78     2       0.3767215199E-03      13   14    1       0.5007164478E+00      0.2198112975E+01      0.1239503131E+05      0.3767215199E-03

    ------------------------------------------------
       NWT REQUIRED            3 OUTER ITERATIONS 
       AND A TOTAL OF         22 INNER ITERATIONS.
    ------------------------------------------------

 OUTPUT CONTROL FOR STRESS PERIOD   10   TIME STEP   12
    SAVE BUDGET
 UBDSV1 SAVING "         STORAGE" ON UNIT  39 AT TIME STEP 12, STRESS PERIOD  10
 UBDSV2 SAVING "   CONSTANT HEAD" ON UNIT  39 AT TIME STEP 12, STRESS PERIOD  10
 UBDSV1 SAVING "FLOW RIGHT FACE " ON UNIT  39 AT TIME STEP 12, STRESS PERIOD  10
 UBDSV1 SAVING "FLOW FRONT FACE " ON UNIT  39 AT TIME STEP 12, STRESS PERIOD  10
 UBDSV1 SAVING "FLOW LOWER FACE " ON UNIT  39 AT TIME STEP 12, STRESS PERIOD  10
 UBDSV3 SAVING "              ET" ON UNIT  39 AT TIME STEP 12, STRESS PERIOD  10
 UBDSV3 SAVING "        RECHARGE" ON UNIT  39 AT TIME STEP 12, STRESS PERIOD  10

 INTERPOLATION FOR HEAD OBS# 3398, ID 1428-11-1    CHANGED BECAUSE AT LEAST ONE
 NEIGHBORING CELL REQUIRED FOR INTERPOLATION IS DRY OR INACTIVE (OBS2BAS7SE)
1
  VOLUMETRIC BUDGET FOR ENTIRE MODEL AT END OF TIME STEP   12, STRESS PERIOD  10
  ------------------------------------------------------------------------------

     CUMULATIVE VOLUMES      L**3       RATES FOR THIS TIME STEP      L**3/T
     ------------------                 ------------------------

           IN:                                      IN:
           ---                                      ---
             STORAGE =  4744344064.0000               STORAGE =     1335651.5000
       CONSTANT HEAD =  3699476480.0000         CONSTANT HEAD =      969764.6250
               WELLS =   324179520.0000                 WELLS =        5967.0000
                  ET =           0.0000                    ET =           0.0000
            RECHARGE = 43449409536.0000              RECHARGE =    14051623.0000

            TOTAL IN = 52217409536.0000              TOTAL IN =    16363006.0000

          OUT:                                     OUT:
          ----                                     ----
             STORAGE =  6655633408.0000               STORAGE =     2077871.7500
       CONSTANT HEAD = 16399996928.0000         CONSTANT HEAD =     5305466.5000
               WELLS =    63684476.0000                 WELLS =      174478.0000
                  ET = 29098559488.0000                    ET =     8805218.0000
            RECHARGE =           0.0000              RECHARGE =           0.0000

           TOTAL OUT = 52217872384.0000             TOTAL OUT =    16363034.0000

            IN - OUT =     -462848.0000              IN - OUT =         -28.0000

 PERCENT DISCREPANCY =          -0.00     PERCENT DISCREPANCY =          -0.00






         TIME SUMMARY AT END OF TIME STEP   12 IN STRESS PERIOD   10
                    SECONDS     MINUTES      HOURS       DAYS        YEARS
                    -----------------------------------------------------------
   TIME STEP LENGTH 2.62800E+06  43800.      730.00      30.417     8.32763E-02
 STRESS PERIOD TIME 3.15360E+07 5.25600E+05  8760.0      365.00     0.99932    
         TOTAL TIME 3.15619E+08 5.26032E+06  87672.      3653.0      10.001    
1
1
                            STRESS PERIOD NO.   11, LENGTH =   365.0000    
                            -----------------------------------------------

                              NUMBER OF TIME STEPS =    12

                               MULTIPLIER FOR DELT =     1.000

                            INITIAL TIME STEP SIZE =   30.41667    

 WELL NO.  LAYER   ROW   COL   STRESS RATE         
 --------------------------------------------------
      1      2     20     29     -0.1330E+06

      1 WELL 

 REUSING SURF FROM LAST STRESS PERIOD

 REUSING EVTR FROM LAST STRESS PERIOD

 REUSING EXDP FROM LAST STRESS PERIOD



                           RECHARGE
 READING ON UNIT   16 WITH FORMAT: (15F5.0)            


     63 TIME-VARIANT SPECIFIED-HEAD CELLS

 SOLVING FOR HEAD 
                                                   Max.-Head-Change                        Max.-Flux-Residual
  Residual-Control   Outer-Iter.   Inner-Iter.     Column Row Layer    Max.-Head-Change    Column Row Layer    Max.-Flux-Residual            L2-New               L2-Old           Solver-Max-Delh
          0                 1          10            65    2     2       0.2961230117E+02      29   18    2       0.1360874451E+06      0.4372981199E+06      0.2198112975E+01      0.2961230117E+02
          0                 2           9            65    2     2      -0.1005860267E+01      29   18    2      -0.1360874464E+05      0.4366954313E+05      0.4372981199E+06     -0.1005860267E+01
          0                 3           4            65    2     2      -0.5791063171E-01      59   91    2      -0.2975292677E+02      0.8886414658E+02      0.4366954313E+05     -0.5791063171E-01
          0                 4           3            65    2     2      -0.3327421516E-02      65    2    2      -0.1475352606E+01      0.2979183029E+01      0.8886414658E+02     -0.3327421516E-02

    ------------------------------------------------
       NWT REQUIRED            4 OUTER ITERATIONS 
       AND A TOTAL OF         26 INNER ITERATIONS.
    ------------------------------------------------

 NO OUTPUT CONTROL FOR STRESS PERIOD   11   TIME STEP    1

 INTERPOLATION FOR HEAD OBS#  634, ID 3016-11-53   CHANGED BECAUSE AT LEAST ONE
 NEIGHBORING CELL REQUIRED FOR INTERPOLATION IS DRY OR INACTIVE (OBS2BAS7SE)

 INTERPOLATION FOR HEAD OBS#  647, ID 3055-11-56   CHANGED BECAUSE AT LEAST ONE
 NEIGHBORING CELL REQUIRED FOR INTERPOLATION IS DRY OR INACTIVE (OBS2BAS7SE)

 INTERPOLATION FOR HEAD OBS# 3655, ID 1891-11-38   CHANGED BECAUSE AT LEAST ONE
 NEIGHBORING CELL REQUIRED FOR INTERPOLATION IS DRY OR INACTIVE (OBS2BAS7SE)

 SOLVING FOR HEAD 
                                                   Max.-Head-Change                        Max.-Flux-Residual
  Residual-Control   Outer-Iter.   Inner-Iter.     Column Row Layer    Max.-Head-Change    Column Row Layer    Max.-Flux-Residual            L2-New               L2-Old           Solver-Max-Delh
          0                 1          10            70   19     2       0.1471613248E+01      76   48    1      -0.6415261000E+05      0.2969963349E+06      0.2979183029E+01      0.1471613248E+01
          0                 2           9            70   19     2      -0.1329013250E+00      76   48    1       0.6707466184E+04      0.2972934552E+05      0.2969963349E+06     -0.1329013250E+00
          0                 3           4            67    9     2       0.7871267801E-02      76   49    1       0.1858563301E+02      0.2283032992E+02      0.2972934552E+05      0.7871267801E-02

    ------------------------------------------------
       NWT REQUIRED            3 OUTER ITERATIONS 
       AND A TOTAL OF         23 INNER ITERATIONS.
    ------------------------------------------------

 NO OUTPUT CONTROL FOR STRESS PERIOD   11   TIME STEP    2

 INTERPOLATION FOR HEAD OBS# 1562, ID 2931-11-62   CHANGED BECAUSE AT LEAST ONE
 NEIGHBORING CELL REQUIRED FOR INTERPOLATION IS DRY OR INACTIVE (OBS2BAS7SE)

 INTERPOLATION FOR HEAD OBS# 3191, ID 2435-11-80   CHANGED BECAUSE AT LEAST ONE
 NEIGHBORING CELL REQUIRED FOR INTERPOLATION IS DRY OR INACTIVE (OBS2BAS7SE)

 SOLVING FOR HEAD 
                                                   Max.-Head-Change                        Max.-Flux-Residual
  Residual-Control   Outer-Iter.   Inner-Iter.     Column Row Layer    Max.-Head-Change    Column Row Layer    Max.-Flux-Residual            L2-New               L2-Old           Solver-Max-Delh
          0                 1          10            70   19     2       0.1369110641E+01      76   48    1      -0.5026450383E+05      0.2500690663E+06      0.2283032992E+02      0.1369110641E+01
          0                 2           9            70   19     2      -0.1235951052E+00      76   48    1       0.5022761652E+04      0.2493530673E+05      0.2500690663E+06     -0.1235951052E+00
          0                 3           4            67    9     2      -0.3543594428E-02      64   42    2      -0.1337861311E+02      0.1739347650E+02      0.2493530673E+05     -0.3543594428E-02

    ------------------------------------------------
       NWT REQUIRED            3 OUTER ITERATIONS 
       AND A TOTAL OF         23 INNER ITERATIONS.
    ------------------------------------------------

 NO OUTPUT CONTROL FOR STRESS PERIOD   11   TIME STEP    3

 INTERPOLATION FOR HEAD OBS# 1240, ID 2727-11-121  CHANGED BECAUSE AT LEAST ONE
 NEIGHBORING CELL REQUIRED FOR INTERPOLATION IS DRY OR INACTIVE (OBS2BAS7SE)

 SOLVING FOR HEAD 
                                                   Max.-Head-Change                        Max.-Flux-Residual
  Residual-Control   Outer-Iter.   Inner-Iter.     Column Row Layer    Max.-Head-Change    Column Row Layer    Max.-Flux-Residual            L2-New               L2-Old           Solver-Max-Delh
          0                 1          10            70   19     2       0.1276867493E+01      69   47    1      -0.4091759421E+05      0.2222765468E+06      0.1739347650E+02      0.1276867493E+01
          0                 2           9            70   19     2      -0.1152285606E+00      69   47    1       0.4066027593E+04      0.2227999611E+05      0.2222765468E+06     -0.1152285606E+00
          0                 3           4            73   15     1      -0.8726668618E-03      70   19    1      -0.3323698487E+01      0.9696036315E+01      0.2227999611E+05     -0.8726668618E-03

    ------------------------------------------------
       NWT REQUIRED            3 OUTER ITERATIONS 
       AND A TOTAL OF         23 INNER ITERATIONS.
    ------------------------------------------------

 NO OUTPUT CONTROL FOR STRESS PERIOD   11   TIME STEP    4

 SOLVING FOR HEAD 
                                                   Max.-Head-Change                        Max.-Flux-Residual
  Residual-Control   Outer-Iter.   Inner-Iter.     Column Row Layer    Max.-Head-Change    Column Row Layer    Max.-Flux-Residual            L2-New               L2-Old           Solver-Max-Delh
          0                 1          10            70   19     2       0.1193693325E+01      69   47    1      -0.3512334749E+05      0.2034371170E+06      0.9696036315E+01      0.1193693325E+01
          0                 2           9            70   19     2      -0.1076882918E+00      70   47    1       0.3496008552E+04      0.2028506191E+05      0.2034371170E+06     -0.1076882918E+00
          0                 3           4            73   15     1      -0.8689365056E-03      70   19    1      -0.3106894705E+01      0.9548006883E+01      0.2028506191E+05     -0.8689365056E-03

    ------------------------------------------------
       NWT REQUIRED            3 OUTER ITERATIONS 
       AND A TOTAL OF         23 INNER ITERATIONS.
    ------------------------------------------------

 NO OUTPUT CONTROL FOR STRESS PERIOD   11   TIME STEP    5

 SOLVING FOR HEAD 
                                                   Max.-Head-Change                        Max.-Flux-Residual
  Residual-Control   Outer-Iter.   Inner-Iter.     Column Row Layer    Max.-Head-Change    Column Row Layer    Max.-Flux-Residual            L2-New               L2-Old           Solver-Max-Delh
          0                 1          10            70   19     2       0.1118561983E+01      70   19    2       0.3239474320E+05      0.1896970505E+06      0.9548006883E+01      0.1118561983E+01
          0                 2           9            70   19     2      -0.1008827205E+00      70   19    2      -0.3248493362E+04      0.1897340938E+05      0.1896970505E+06     -0.1008827205E+00
          0                 3           5            52   33     2      -0.4578024053E-02      52   33    2      -0.1022351458E+03      0.1060111483E+03      0.1897340938E+05     -0.4578024053E-02

    ------------------------------------------------
       NWT REQUIRED            3 OUTER ITERATIONS 
       AND A TOTAL OF         24 INNER ITERATIONS.
    ------------------------------------------------

 NO OUTPUT CONTROL FOR STRESS PERIOD   11   TIME STEP    6

 SOLVING FOR HEAD 
                                                   Max.-Head-Change                        Max.-Flux-Residual
  Residual-Control   Outer-Iter.   Inner-Iter.     Column Row Layer    Max.-Head-Change    Column Row Layer    Max.-Flux-Residual            L2-New               L2-Old           Solver-Max-Delh
          0                 1          10            70   19     2       0.1050568666E+01      70   19    2       0.3035687441E+05      0.1793980047E+06      0.1060111483E+03      0.1050568666E+01
          0                 2           9            77   46     2       0.1369425131E+00      77   46    2       0.5487614617E+04      0.1870601594E+05      0.1793980047E+06      0.1369425131E+00
          0                 3           4            73   15     1      -0.8556773612E-03      76   46    2      -0.7208925443E+01      0.1080551367E+02      0.1870601594E+05     -0.8556773612E-03

    ------------------------------------------------
       NWT REQUIRED            3 OUTER ITERATIONS 
       AND A TOTAL OF         23 INNER ITERATIONS.
    ------------------------------------------------

 NO OUTPUT CONTROL FOR STRESS PERIOD   11   TIME STEP    7

 SOLVING FOR HEAD 
                                                   Max.-Head-Change                        Max.-Flux-Residual
  Residual-Control   Outer-Iter.   Inner-Iter.     Column Row Layer    Max.-Head-Change    Column Row Layer    Max.-Flux-Residual            L2-New               L2-Old           Solver-Max-Delh
          0                 1          10            70   19     2       0.9889186669E+00      70   19    2       0.2851249070E+05      0.1714722543E+06      0.1080551367E+02      0.9889186669E+00
          0                 2           9            70   19     2      -0.8915318196E-01      70   19    2      -0.2857633301E+04      0.1728486869E+05      0.1714722543E+06     -0.8915318196E-01
          0                 3           4            73   15     1      -0.8480439967E-03      70   19    1      -0.2573515926E+01      0.7853503505E+01      0.1728486869E+05     -0.8480439967E-03

    ------------------------------------------------
       NWT REQUIRED            3 OUTER ITERATIONS 
       AND A TOTAL OF         23 INNER ITERATIONS.
    ------------------------------------------------

 NO OUTPUT CONTROL FOR STRESS PERIOD   11   TIME STEP    8

 SOLVING FOR HEAD 
                                                   Max.-Head-Change                        Max.-Flux-Residual
  Residual-Control   Outer-Iter.   Inner-Iter.     Column Row Layer    Max.-Head-Change    Column Row Layer    Max.-Flux-Residual            L2-New               L2-Old           Solver-Max-Delh
          0                 1          10            70   19     2       0.9328849504E+00      70   19    2       0.2683995075E+05      0.1651606965E+06      0.7853503505E+01      0.9328849504E+00
          0                 2           9            70   19     2      -0.8408232820E-01      70   19    2      -0.2689399313E+04      0.1649308666E+05      0.1651606965E+06     -0.8408232820E-01
          0                 3           3            73   15     1      -0.8398217487E-03      70   19    1      -0.2427477300E+01      0.7602505458E+01      0.1649308666E+05     -0.8398217487E-03

    ------------------------------------------------
       NWT REQUIRED            3 OUTER ITERATIONS 
       AND A TOTAL OF         22 INNER ITERATIONS.
    ------------------------------------------------

 NO OUTPUT CONTROL FOR STRESS PERIOD   11   TIME STEP    9

 INTERPOLATION FOR HEAD OBS# 1011, ID 2643-11-275  CHANGED BECAUSE AT LEAST ONE
 NEIGHBORING CELL REQUIRED FOR INTERPOLATION IS DRY OR INACTIVE (OBS2BAS7SE)

 INTERPOLATION FOR HEAD OBS# 3704, ID 1471-11-278  CHANGED BECAUSE AT LEAST ONE
 NEIGHBORING CELL REQUIRED FOR INTERPOLATION IS DRY OR INACTIVE (OBS2BAS7SE)

 SOLVING FOR HEAD 
                                                   Max.-Head-Change                        Max.-Flux-Residual
  Residual-Control   Outer-Iter.   Inner-Iter.     Column Row Layer    Max.-Head-Change    Column Row Layer    Max.-Flux-Residual            L2-New               L2-Old           Solver-Max-Delh
          0                 1          10            70   19     2       0.8818647517E+00      70   19    2       0.2531989483E+05      0.1600907542E+06      0.7602505458E+01      0.8818647517E+00
          0                 2           9            64   28     1      -0.1285420233E+00      64   28    1      -0.6155575660E+04      0.1717721004E+05      0.1600907542E+06     -0.1285420233E+00
          0                 3           5            56   38     2      -0.2598291864E-02      56   38    2      -0.1287083646E+03      0.1357251113E+03      0.1717721004E+05     -0.2598291864E-02

    ------------------------------------------------
       NWT REQUIRED            3 OUTER ITERATIONS 
       AND A TOTAL OF         24 INNER ITERATIONS.
    ------------------------------------------------

 NO OUTPUT CONTROL FOR STRESS PERIOD   11   TIME STEP   10

 SOLVING FOR HEAD 
                                                   Max.-Head-Change                        Max.-Flux-Residual
  Residual-Control   Outer-Iter.   Inner-Iter.     Column Row Layer    Max.-Head-Change    Column Row Layer    Max.-Flux-Residual            L2-New               L2-Old           Solver-Max-Delh
          0                 1          10            73   14     2       0.8369972551E+00      70   19    2       0.2393569224E+05      0.1559436294E+06      0.1357251113E+03      0.8369972551E+00
          0                 2           9            70   18     1      -0.4622972787E+00      70   18    1      -0.1475975128E+05      0.2145159646E+05      0.1559436294E+06     -0.4622972787E+00
          0                 3           3            73   15     1      -0.8219390165E-03      70   18    1      -0.2055229105E+01      0.7098542830E+01      0.2145159646E+05     -0.8219390165E-03

    ------------------------------------------------
       NWT REQUIRED            3 OUTER ITERATIONS 
       AND A TOTAL OF         22 INNER ITERATIONS.
    ------------------------------------------------

 NO OUTPUT CONTROL FOR STRESS PERIOD   11   TIME STEP   11

 SOLVING FOR HEAD 
                                                   Max.-Head-Change                        Max.-Flux-Residual
  Residual-Control   Outer-Iter.   Inner-Iter.     Column Row Layer    Max.-Head-Change    Column Row Layer    Max.-Flux-Residual            L2-New               L2-Old           Solver-Max-Delh
          0                 1          10            73   15     3       0.8211538963E+00      12    9    1      -0.2347724686E+05      0.1523588257E+06      0.7098542830E+01      0.8211538963E+00
          0                 2           9            73   15     3      -0.7295352751E-01      12    9    1       0.2307893933E+04      0.1521063444E+05      0.1523588257E+06     -0.7295352751E-01
          0                 3           3            73   15     1      -0.8123796694E-03      70   19    1      -0.2054280043E+01      0.7405511068E+01      0.1521063444E+05     -0.8123796694E-03

    ------------------------------------------------
       NWT REQUIRED            3 OUTER ITERATIONS 
       AND A TOTAL OF         22 INNER ITERATIONS.
    ------------------------------------------------

 OUTPUT CONTROL FOR STRESS PERIOD   11   TIME STEP   12
    SAVE BUDGET
    SAVE HEAD FOR LAYERS:   1  2  3
 UBDSV1 SAVING "         STORAGE" ON UNIT  39 AT TIME STEP 12, STRESS PERIOD  11
 UBDSV2 SAVING "   CONSTANT HEAD" ON UNIT  39 AT TIME STEP 12, STRESS PERIOD  11
 UBDSV1 SAVING "FLOW RIGHT FACE " ON UNIT  39 AT TIME STEP 12, STRESS PERIOD  11
 UBDSV1 SAVING "FLOW FRONT FACE " ON UNIT  39 AT TIME STEP 12, STRESS PERIOD  11
 UBDSV1 SAVING "FLOW LOWER FACE " ON UNIT  39 AT TIME STEP 12, STRESS PERIOD  11
 UBDSV3 SAVING "              ET" ON UNIT  39 AT TIME STEP 12, STRESS PERIOD  11
 UBDSV3 SAVING "        RECHARGE" ON UNIT  39 AT TIME STEP 12, STRESS PERIOD  11

 HEAD WILL BE SAVED ON UNIT   31 AT END OF TIME STEP   12, STRESS PERIOD   11
1
  VOLUMETRIC BUDGET FOR ENTIRE MODEL AT END OF TIME STEP   12, STRESS PERIOD  11
  ------------------------------------------------------------------------------

     CUMULATIVE VOLUMES      L**3       RATES FOR THIS TIME STEP      L**3/T
     ------------------                 ------------------------

           IN:                                      IN:
           ---                                      ---
             STORAGE =  5584657408.0000               STORAGE =     1981860.8750
       CONSTANT HEAD =  4046369536.0000         CONSTANT HEAD =      939309.7500
               WELLS =   324179520.0000                 WELLS =           0.0000
                  ET =           0.0000                    ET =           0.0000
            RECHARGE = 48446349312.0000              RECHARGE =    13690261.0000

            TOTAL IN = 58401554432.0000              TOTAL IN =    16611432.0000

          OUT:                                     OUT:
          ----                                     ----
             STORAGE =  7717295616.0000               STORAGE =     2602904.7500
       CONSTANT HEAD = 18373371904.0000         CONSTANT HEAD =     5491876.5000
               WELLS =   112233880.0000                 WELLS =      133012.0000
                  ET = 32199133184.0000                    ET =     8383664.5000
            RECHARGE =           0.0000              RECHARGE =           0.0000

           TOTAL OUT = 58402037760.0000             TOTAL OUT =    16611458.0000

            IN - OUT =     -483328.0000              IN - OUT =         -26.0000

 PERCENT DISCREPANCY =          -0.00     PERCENT DISCREPANCY =          -0.00






         TIME SUMMARY AT END OF TIME STEP   12 IN STRESS PERIOD   11
                    SECONDS     MINUTES      HOURS       DAYS        YEARS
                    -----------------------------------------------------------
   TIME STEP LENGTH 2.62800E+06  43800.      730.00      30.417     8.32763E-02
 STRESS PERIOD TIME 3.15360E+07 5.25600E+05  8760.0      365.00     0.99932    
         TOTAL TIME 3.47156E+08 5.78593E+06  96432.      4018.0      11.001    
1
1
                            STRESS PERIOD NO.   12, LENGTH =   365.0000    
                            -----------------------------------------------

                              NUMBER OF TIME STEPS =    12

                               MULTIPLIER FOR DELT =     1.000

                            INITIAL TIME STEP SIZE =   30.41667    

 WELL NO.  LAYER   ROW   COL   STRESS RATE         
 --------------------------------------------------
      1      2     20     31     -0.1211E+06

      1 WELL 

 REUSING SURF FROM LAST STRESS PERIOD

 REUSING EVTR FROM LAST STRESS PERIOD

 REUSING EXDP FROM LAST STRESS PERIOD



                           RECHARGE
 READING ON UNIT   16 WITH FORMAT: (15F5.0)            


     63 TIME-VARIANT SPECIFIED-HEAD CELLS

 SOLVING FOR HEAD 
                                                   Max.-Head-Change                        Max.-Flux-Residual
  Residual-Control   Outer-Iter.   Inner-Iter.     Column Row Layer    Max.-Head-Change    Column Row Layer    Max.-Flux-Residual            L2-New               L2-Old           Solver-Max-Delh
          0                 1          11            65    2     2      -0.2947116132E+02      29   20    2       0.1330106000E+06      0.5219716526E+06      0.7405511068E+01     -0.2947116132E+02
          0                 2           9            92   77     2       0.6089094696E+01      70   18    1      -0.1337558122E+05      0.5369247417E+05      0.5219716526E+06      0.6089094696E+01
          0                 3           4            70   18     1       0.2547790744E+00      70   18    2      -0.1610280086E+04      0.2226621800E+04      0.5369247417E+05      0.2547790744E+00
          0                 4           3            92   77     2      -0.5349168921E-02      70   18    1       0.7033185564E+01      0.8160865101E+01      0.2226621800E+04     -0.5349168921E-02

    ------------------------------------------------
       NWT REQUIRED            4 OUTER ITERATIONS 
       AND A TOTAL OF         27 INNER ITERATIONS.
    ------------------------------------------------

 NO OUTPUT CONTROL FOR STRESS PERIOD   12   TIME STEP    1

 SOLVING FOR HEAD 
                                                   Max.-Head-Change                        Max.-Flux-Residual
  Residual-Control   Outer-Iter.   Inner-Iter.     Column Row Layer    Max.-Head-Change    Column Row Layer    Max.-Flux-Residual            L2-New               L2-Old           Solver-Max-Delh
          0                 1          11            81   45     1       0.2121391903E+01      81   45    1       0.6567440080E+05      0.3283792125E+06      0.8160865101E+01      0.2121391903E+01
          0                 2           9            81   45     1      -0.1938895877E+00      81   45    1      -0.6611526586E+04      0.3286422994E+05      0.3283792125E+06     -0.1938895877E+00
          0                 3           4            70   18     1       0.7347867659E-03      59   60    1      -0.5261037487E+02      0.7544621224E+02      0.3286422994E+05      0.7347867659E-03

    ------------------------------------------------
       NWT REQUIRED            3 OUTER ITERATIONS 
       AND A TOTAL OF         24 INNER ITERATIONS.
    ------------------------------------------------

 NO OUTPUT CONTROL FOR STRESS PERIOD   12   TIME STEP    2

 SOLVING FOR HEAD 
                                                   Max.-Head-Change                        Max.-Flux-Residual
  Residual-Control   Outer-Iter.   Inner-Iter.     Column Row Layer    Max.-Head-Change    Column Row Layer    Max.-Flux-Residual            L2-New               L2-Old           Solver-Max-Delh
          0                 1          10            81   45     1       0.1854720928E+01      81   45    1       0.5744268306E+05      0.2670479463E+06      0.7544621224E+02      0.1854720928E+01
          0                 2           9            81   45     1      -0.1687498337E+00      81   45    1      -0.5750312908E+04      0.2674896878E+05      0.2670479463E+06     -0.1687498337E+00
          0                 3           3            25   78     2       0.5058914760E-03      60   87    2      -0.1856448196E+01      0.5519171159E+01      0.2674896878E+05      0.5058914760E-03

    ------------------------------------------------
       NWT REQUIRED            3 OUTER ITERATIONS 
       AND A TOTAL OF         22 INNER ITERATIONS.
    ------------------------------------------------

 NO OUTPUT CONTROL FOR STRESS PERIOD   12   TIME STEP    3

 INTERPOLATION FOR HEAD OBS# 6990, ID 683-12-102   CHANGED BECAUSE AT LEAST ONE
 NEIGHBORING CELL REQUIRED FOR INTERPOLATION IS DRY OR INACTIVE (OBS2BAS7SE)

 SOLVING FOR HEAD 
                                                   Max.-Head-Change                        Max.-Flux-Residual
  Residual-Control   Outer-Iter.   Inner-Iter.     Column Row Layer    Max.-Head-Change    Column Row Layer    Max.-Flux-Residual            L2-New               L2-Old           Solver-Max-Delh
          0                 1          10            81   45     1       0.1623216375E+01      81   46    1       0.5111042491E+05      0.2316406246E+06      0.5519171159E+01      0.1623216375E+01
          0                 2           9            81   45     1      -0.1476669850E+00      81   46    1      -0.5114008740E+04      0.2304320599E+05      0.2316406246E+06     -0.1476669850E+00
          0                 3           4            77   46     2      -0.1048202111E-01      86   50    1      -0.7444026471E+02      0.1138817567E+03      0.2304320599E+05     -0.1048202111E-01
          0                 4           2            25   78     2       0.1238089985E-03      61   85    1      -0.5096987486E+00      0.5217018796E+00      0.1138817567E+03      0.1238089985E-03

    ------------------------------------------------
       NWT REQUIRED            4 OUTER ITERATIONS 
       AND A TOTAL OF         25 INNER ITERATIONS.
    ------------------------------------------------

 NO OUTPUT CONTROL FOR STRESS PERIOD   12   TIME STEP    4

 SOLVING FOR HEAD 
                                                   Max.-Head-Change                        Max.-Flux-Residual
  Residual-Control   Outer-Iter.   Inner-Iter.     Column Row Layer    Max.-Head-Change    Column Row Layer    Max.-Flux-Residual            L2-New               L2-Old           Solver-Max-Delh
          0                 1          10            81   45     1       0.1421506031E+01      81   46    1       0.4570303443E+05      0.2076464873E+06      0.5217018796E+00      0.1421506031E+01
          0                 2           9            77   46     2      -0.1616144422E+00      81   45    1      -0.4400865055E+04      0.2075303539E+05      0.2076464873E+06     -0.1616144422E+00
          0                 3           3            25   78     2       0.5103398652E-03      78   46    2      -0.4290117222E+01      0.6012837119E+01      0.2075303539E+05      0.5103398652E-03

    ------------------------------------------------
       NWT REQUIRED            3 OUTER ITERATIONS 
       AND A TOTAL OF         22 INNER ITERATIONS.
    ------------------------------------------------

 NO OUTPUT CONTROL FOR STRESS PERIOD   12   TIME STEP    5

 SOLVING FOR HEAD 
                                                   Max.-Head-Change                        Max.-Flux-Residual
  Residual-Control   Outer-Iter.   Inner-Iter.     Column Row Layer    Max.-Head-Change    Column Row Layer    Max.-Flux-Residual            L2-New               L2-Old           Solver-Max-Delh
          0                 1          10            81   46     1       0.1296854950E+01      81   46    1       0.4168463353E+05      0.1905373322E+06      0.6012837119E+01      0.1296854950E+01
          0                 2           9            81   46     1      -0.1179615195E+00      81   46    1      -0.4170988981E+04      0.1903591719E+05      0.1905373322E+06     -0.1179615195E+00
          0                 3           3            25   78     2       0.5196422845E-03      70   19    1       0.1359560598E+01      0.3807360966E+01      0.1903591719E+05      0.5196422845E-03

    ------------------------------------------------
       NWT REQUIRED            3 OUTER ITERATIONS 
       AND A TOTAL OF         22 INNER ITERATIONS.
    ------------------------------------------------

 NO OUTPUT CONTROL FOR STRESS PERIOD   12   TIME STEP    6

 SOLVING FOR HEAD 
                                                   Max.-Head-Change                        Max.-Flux-Residual
  Residual-Control   Outer-Iter.   Inner-Iter.     Column Row Layer    Max.-Head-Change    Column Row Layer    Max.-Flux-Residual            L2-New               L2-Old           Solver-Max-Delh
          0                 1          10            81   46     1       0.1260220842E+01      81   46    1       0.4054080109E+05      0.1777835038E+06      0.3807360966E+01      0.1260220842E+01
          0                 2           9            81   46     1      -0.1146219829E+00      81   46    1      -0.4056569983E+04      0.1776050321E+05      0.1777835038E+06     -0.1146219829E+00
          0                 3           3            91   52     3      -0.7432108123E-03      59   86    1      -0.8647163570E+01      0.1125927015E+02      0.1776050321E+05     -0.7432108123E-03

    ------------------------------------------------
       NWT REQUIRED            3 OUTER ITERATIONS 
       AND A TOTAL OF         22 INNER ITERATIONS.
    ------------------------------------------------

 NO OUTPUT CONTROL FOR STRESS PERIOD   12   TIME STEP    7

 SOLVING FOR HEAD 
                                                   Max.-Head-Change                        Max.-Flux-Residual
  Residual-Control   Outer-Iter.   Inner-Iter.     Column Row Layer    Max.-Head-Change    Column Row Layer    Max.-Flux-Residual            L2-New               L2-Old           Solver-Max-Delh
          0                 1          10            81   46     1       0.1223792304E+01      81   46    1       0.3939613627E+05      0.1678198800E+06      0.1125927015E+02      0.1223792304E+01
          0                 2           9            81   46     1      -0.1113085948E+00      81   46    1      -0.3942034025E+04      0.1676176810E+05      0.1678198800E+06     -0.1113085948E+00
          0                 3           4            25   78     2       0.5254205272E-03      22   50    2       0.5145572752E+01      0.7075476608E+01      0.1676176810E+05      0.5254205272E-03

    ------------------------------------------------
       NWT REQUIRED            3 OUTER ITERATIONS 
       AND A TOTAL OF         23 INNER ITERATIONS.
    ------------------------------------------------

 NO OUTPUT CONTROL FOR STRESS PERIOD   12   TIME STEP    8

 INTERPOLATION FOR HEAD OBS# 1241, ID 2789-12-271  CHANGED BECAUSE AT LEAST ONE
 NEIGHBORING CELL REQUIRED FOR INTERPOLATION IS DRY OR INACTIVE (OBS2BAS7SE)

 SOLVING FOR HEAD 
                                                   Max.-Head-Change                        Max.-Flux-Residual
  Residual-Control   Outer-Iter.   Inner-Iter.     Column Row Layer    Max.-Head-Change    Column Row Layer    Max.-Flux-Residual            L2-New               L2-Old           Solver-Max-Delh
          0                 1          10            81   46     1       0.1187695991E+01      81   46    1       0.3825762169E+05      0.1598757088E+06      0.7075476608E+01      0.1187695991E+01
          0                 2           9            81   46     1      -0.1080249327E+00      81   46    1      -0.3828091179E+04      0.1596474358E+05      0.1598757088E+06     -0.1080249327E+00
          0                 3           4            53   48     1      -0.1435091745E-02      53   48    1      -0.8150195692E+02      0.8156626722E+02      0.1596474358E+05     -0.1435091745E-02

    ------------------------------------------------
       NWT REQUIRED            3 OUTER ITERATIONS 
       AND A TOTAL OF         23 INNER ITERATIONS.
    ------------------------------------------------

 NO OUTPUT CONTROL FOR STRESS PERIOD   12   TIME STEP    9

 SOLVING FOR HEAD 
                                                   Max.-Head-Change                        Max.-Flux-Residual
  Residual-Control   Outer-Iter.   Inner-Iter.     Column Row Layer    Max.-Head-Change    Column Row Layer    Max.-Flux-Residual            L2-New               L2-Old           Solver-Max-Delh
          0                 1          10            81   46     1       0.1152045136E+01      81   46    1       0.3712947950E+05      0.1534293160E+06      0.8156626722E+02      0.1152045136E+01
          0                 2           9            81   46     1      -0.1047814802E+00      81   46    1      -0.3715172164E+04      0.1531776209E+05      0.1534293160E+06     -0.1047814802E+00
          0                 3           4            53   48     1       0.3630239907E-02      53   48    1       0.8613313884E+02      0.8735110131E+02      0.1531776209E+05      0.3630239907E-02

    ------------------------------------------------
       NWT REQUIRED            3 OUTER ITERATIONS 
       AND A TOTAL OF         23 INNER ITERATIONS.
    ------------------------------------------------

 NO OUTPUT CONTROL FOR STRESS PERIOD   12   TIME STEP   10

 INTERPOLATION FOR HEAD OBS# 6259, ID 987-12-324   CHANGED BECAUSE AT LEAST ONE
 NEIGHBORING CELL REQUIRED FOR INTERPOLATION IS DRY OR INACTIVE (OBS2BAS7SE)

 SOLVING FOR HEAD 
                                                   Max.-Head-Change                        Max.-Flux-Residual
  Residual-Control   Outer-Iter.   Inner-Iter.     Column Row Layer    Max.-Head-Change    Column Row Layer    Max.-Flux-Residual            L2-New               L2-Old           Solver-Max-Delh
          0                 1          10            81   46     1       0.1116935166E+01      81   46    1       0.3601525606E+05      0.1481429456E+06      0.8735110131E+02      0.1116935166E+01
          0                 2           9            81   46     1      -0.1015870483E+00      81   46    1      -0.3603637723E+04      0.1479133021E+05      0.1481429456E+06     -0.1015870483E+00
          0                 3           3            25   78     2       0.5286355556E-03      70   19    1       0.9098259658E+00      0.2942434689E+01      0.1479133021E+05      0.5286355556E-03

    ------------------------------------------------
       NWT REQUIRED            3 OUTER ITERATIONS 
       AND A TOTAL OF         22 INNER ITERATIONS.
    ------------------------------------------------

 NO OUTPUT CONTROL FOR STRESS PERIOD   12   TIME STEP   11

 SOLVING FOR HEAD 
                                                   Max.-Head-Change                        Max.-Flux-Residual
  Residual-Control   Outer-Iter.   Inner-Iter.     Column Row Layer    Max.-Head-Change    Column Row Layer    Max.-Flux-Residual            L2-New               L2-Old           Solver-Max-Delh
          0                 1          10            81   46     1       0.1082444252E+01      81   46    1       0.3491792028E+05      0.1437582129E+06      0.2942434689E+01      0.1082444252E+01
          0                 2           9            81   46     1      -0.9844806655E-01      81   46    1      -0.3493789080E+04      0.1433225734E+05      0.1437582129E+06     -0.9844806655E-01
          0                 3           3            25   78     2       0.5284987398E-03      70   19    1       0.8461085446E+00      0.2937808955E+01      0.1433225734E+05      0.5284987398E-03

    ------------------------------------------------
       NWT REQUIRED            3 OUTER ITERATIONS 
       AND A TOTAL OF         22 INNER ITERATIONS.
    ------------------------------------------------

 OUTPUT CONTROL FOR STRESS PERIOD   12   TIME STEP   12
    SAVE BUDGET
 UBDSV1 SAVING "         STORAGE" ON UNIT  39 AT TIME STEP 12, STRESS PERIOD  12
 UBDSV2 SAVING "   CONSTANT HEAD" ON UNIT  39 AT TIME STEP 12, STRESS PERIOD  12
 UBDSV1 SAVING "FLOW RIGHT FACE " ON UNIT  39 AT TIME STEP 12, STRESS PERIOD  12
 UBDSV1 SAVING "FLOW FRONT FACE " ON UNIT  39 AT TIME STEP 12, STRESS PERIOD  12
 UBDSV1 SAVING "FLOW LOWER FACE " ON UNIT  39 AT TIME STEP 12, STRESS PERIOD  12
 UBDSV3 SAVING "              ET" ON UNIT  39 AT TIME STEP 12, STRESS PERIOD  12
 UBDSV3 SAVING "        RECHARGE" ON UNIT  39 AT TIME STEP 12, STRESS PERIOD  12
1
  VOLUMETRIC BUDGET FOR ENTIRE MODEL AT END OF TIME STEP   12, STRESS PERIOD  12
  ------------------------------------------------------------------------------

     CUMULATIVE VOLUMES      L**3       RATES FOR THIS TIME STEP      L**3/T
     ------------------                 ------------------------

           IN:                                      IN:
           ---                                      ---
             STORAGE =  6755486720.0000               STORAGE =     2680571.7500
       CONSTANT HEAD =  4394740224.0000         CONSTANT HEAD =      960281.5625
               WELLS =   324179520.0000                 WELLS =           0.0000
                  ET =           0.0000                    ET =           0.0000
            RECHARGE = 52908171264.0000              RECHARGE =    12224163.0000

            TOTAL IN = 64382578688.0000              TOTAL IN =    15865016.0000

          OUT:                                     OUT:
          ----                                     ----
             STORAGE =  8504075776.0000               STORAGE =     1598871.7500
       CONSTANT HEAD = 20444274688.0000         CONSTANT HEAD =     5701049.0000
               WELLS =   156417872.0000                 WELLS =      121052.0000
                  ET = 35278295040.0000                    ET =     8444071.0000
            RECHARGE =           0.0000              RECHARGE =           0.0000

           TOTAL OUT = 64383066112.0000             TOTAL OUT =    15865044.0000

            IN - OUT =     -487424.0000              IN - OUT =         -28.0000

 PERCENT DISCREPANCY =          -0.00     PERCENT DISCREPANCY =          -0.00






         TIME SUMMARY AT END OF TIME STEP   12 IN STRESS PERIOD   12
                    SECONDS     MINUTES      HOURS       DAYS        YEARS
                    -----------------------------------------------------------
   TIME STEP LENGTH 2.62800E+06  43800.      730.00      30.417     8.32763E-02
 STRESS PERIOD TIME 3.15360E+07 5.25600E+05  8760.0      365.00     0.99932    
         TOTAL TIME 3.78691E+08 6.31152E+06 1.05192E+05  4383.0      12.000    
1
1
                            STRESS PERIOD NO.   13, LENGTH =   366.0000    
                            -----------------------------------------------

                              NUMBER OF TIME STEPS =    12

                               MULTIPLIER FOR DELT =     1.000

                            INITIAL TIME STEP SIZE =   30.50000    

 WELL NO.  LAYER   ROW   COL   STRESS RATE         
 --------------------------------------------------
      1      2     22     31     -0.1319E+06

      1 WELL 

 REUSING SURF FROM LAST STRESS PERIOD

 REUSING EVTR FROM LAST STRESS PERIOD

 REUSING EXDP FROM LAST STRESS PERIOD



                           RECHARGE
 READING ON UNIT   16 WITH FORMAT: (15F5.0)            


     63 TIME-VARIANT SPECIFIED-HEAD CELLS

 SOLVING FOR HEAD 
                                                   Max.-Head-Change                        Max.-Flux-Residual
  Residual-Control   Outer-Iter.   Inner-Iter.     Column Row Layer    Max.-Head-Change    Column Row Layer    Max.-Flux-Residual            L2-New               L2-Old           Solver-Max-Delh
          0                 1          11            92   77     2      -0.1349602978E+02      31   22    2      -0.1319428476E+06      0.2920457046E+06      0.2937808955E+01     -0.1349602978E+02
          0                 2           9            16   79     1      -0.2232326708E+00      31   22    2       0.1319428499E+05      0.2918831001E+05      0.2920457046E+06     -0.2232326708E+00
          0                 3           4            13   85     1      -0.1264042156E-01      28   61    2      -0.5669260028E+02      0.8252255550E+02      0.2918831001E+05     -0.1264042156E-01
          0                 4           2            13   85     1      -0.9305077176E-03      27   59    2       0.1514261499E+01      0.1897502855E+01      0.8252255550E+02     -0.9305077176E-03

    ------------------------------------------------
       NWT REQUIRED            4 OUTER ITERATIONS 
       AND A TOTAL OF         26 INNER ITERATIONS.
    ------------------------------------------------

 NO OUTPUT CONTROL FOR STRESS PERIOD   13   TIME STEP    1

 SOLVING FOR HEAD 
                                                   Max.-Head-Change                        Max.-Flux-Residual
  Residual-Control   Outer-Iter.   Inner-Iter.     Column Row Layer    Max.-Head-Change    Column Row Layer    Max.-Flux-Residual            L2-New               L2-Old           Solver-Max-Delh
          0                 1          10            12    4     3      -0.5339035547E+00      76   48    1      -0.2408392738E+05      0.1596551076E+06      0.1897502855E+01     -0.5339035547E+00
          0                 2           9            69   47     1       0.5581890057E-01      69   47    1       0.2611804566E+04      0.1604337261E+05      0.1596551076E+06      0.5581890057E-01
          0                 3           4            17   75     3      -0.1000252049E-02      17   75    3      -0.3092425511E+02      0.3190936893E+02      0.1604337261E+05     -0.1000252049E-02

    ------------------------------------------------
       NWT REQUIRED            3 OUTER ITERATIONS 
       AND A TOTAL OF         23 INNER ITERATIONS.
    ------------------------------------------------

 NO OUTPUT CONTROL FOR STRESS PERIOD   13   TIME STEP    2

 SOLVING FOR HEAD 
                                                   Max.-Head-Change                        Max.-Flux-Residual
  Residual-Control   Outer-Iter.   Inner-Iter.     Column Row Layer    Max.-Head-Change    Column Row Layer    Max.-Flux-Residual            L2-New               L2-Old           Solver-Max-Delh
          0                 1          10            12    4     3      -0.5358435136E+00      12    8    1      -0.1983782790E+05      0.1373996611E+06      0.3190936893E+02     -0.5358435136E+00
          0                 2           9            12    4     3       0.4864042917E-01      12    8    1       0.1957904893E+04      0.1371753240E+05      0.1373996611E+06      0.4864042917E-01
          0                 3           4            25   78     2       0.5229918224E-03      70   19    1       0.6893721037E+00      0.3283792102E+01      0.1371753240E+05      0.5229918224E-03

    ------------------------------------------------
       NWT REQUIRED            3 OUTER ITERATIONS 
       AND A TOTAL OF         23 INNER ITERATIONS.
    ------------------------------------------------

 NO OUTPUT CONTROL FOR STRESS PERIOD   13   TIME STEP    3

 SOLVING FOR HEAD 
                                                   Max.-Head-Change                        Max.-Flux-Residual
  Residual-Control   Outer-Iter.   Inner-Iter.     Column Row Layer    Max.-Head-Change    Column Row Layer    Max.-Flux-Residual            L2-New               L2-Old           Solver-Max-Delh
          0                 1          10            12    4     3      -0.5370529855E+00      12    8    1      -0.1949698276E+05      0.1269913904E+06      0.3283792102E+01     -0.5370529855E+00
          0                 2           9            12    4     3       0.4874918276E-01      12    8    1       0.1924436245E+04      0.1267553513E+05      0.1269913904E+06      0.4874918276E-01
          0                 3           4            25   78     2       0.5205893515E-03      58   63    1       0.2621033251E+01      0.4892508284E+01      0.1267553513E+05      0.5205893515E-03

    ------------------------------------------------
       NWT REQUIRED            3 OUTER ITERATIONS 
       AND A TOTAL OF         23 INNER ITERATIONS.
    ------------------------------------------------

 NO OUTPUT CONTROL FOR STRESS PERIOD   13   TIME STEP    4

 SOLVING FOR HEAD 
                                                   Max.-Head-Change                        Max.-Flux-Residual
  Residual-Control   Outer-Iter.   Inner-Iter.     Column Row Layer    Max.-Head-Change    Column Row Layer    Max.-Flux-Residual            L2-New               L2-Old           Solver-Max-Delh
          0                 1          10            12    4     3      -0.5377959065E+00      12    8    1      -0.1930604798E+05      0.1209085965E+06      0.4892508284E+01     -0.5377959065E+00
          0                 2           9            12    4     3       0.4881594579E-01      12    8    1       0.1905659550E+04      0.1207310848E+05      0.1209085965E+06      0.4881594579E-01
          0                 3           4            25   78     2       0.5176148976E-03      13   14    1       0.6689151525E+00      0.2990579665E+01      0.1207310848E+05      0.5176148976E-03

    ------------------------------------------------
       NWT REQUIRED            3 OUTER ITERATIONS 
       AND A TOTAL OF         23 INNER ITERATIONS.
    ------------------------------------------------

 NO OUTPUT CONTROL FOR STRESS PERIOD   13   TIME STEP    5

 SOLVING FOR HEAD 
                                                   Max.-Head-Change                        Max.-Flux-Residual
  Residual-Control   Outer-Iter.   Inner-Iter.     Column Row Layer    Max.-Head-Change    Column Row Layer    Max.-Flux-Residual            L2-New               L2-Old           Solver-Max-Delh
          0                 1          10            12    4     3      -0.5384036145E+00      12    8    1      -0.1918192157E+05      0.1169317055E+06      0.2990579665E+01     -0.5384036145E+00
          0                 2           9            12    4     3       0.4887066852E-01      12    8    1       0.1893442515E+04      0.1166027182E+05      0.1169317055E+06      0.4887066852E-01
          0                 3           4            25   78     2       0.5143707096E-03      13   14    1       0.6646585464E+00      0.2867926297E+01      0.1166027182E+05      0.5143707096E-03

    ------------------------------------------------
       NWT REQUIRED            3 OUTER ITERATIONS 
       AND A TOTAL OF         23 INNER ITERATIONS.
    ------------------------------------------------

 NO OUTPUT CONTROL FOR STRESS PERIOD   13   TIME STEP    6

 SOLVING FOR HEAD 
                                                   Max.-Head-Change                        Max.-Flux-Residual
  Residual-Control   Outer-Iter.   Inner-Iter.     Column Row Layer    Max.-Head-Change    Column Row Layer    Max.-Flux-Residual            L2-New               L2-Old           Solver-Max-Delh
          0                 1          10            12    4     3      -0.5387918205E+00      12    8    1      -0.1909107005E+05      0.1141533523E+06      0.2867926297E+01     -0.5387918205E+00
          0                 2           9            12    4     3       0.4890560392E-01      12    8    1       0.1884487400E+04      0.1139111423E+05      0.1141533523E+06      0.4890560392E-01
          0                 3           4            25   78     2       0.5108253758E-03      25   62    3       0.4051587624E+01      0.6366760924E+01      0.1139111423E+05      0.5108253758E-03

    ------------------------------------------------
       NWT REQUIRED            3 OUTER ITERATIONS 
       AND A TOTAL OF         23 INNER ITERATIONS.
    ------------------------------------------------

 NO OUTPUT CONTROL FOR STRESS PERIOD   13   TIME STEP    7

 SOLVING FOR HEAD 
                                                   Max.-Head-Change                        Max.-Flux-Residual
  Residual-Control   Outer-Iter.   Inner-Iter.     Column Row Layer    Max.-Head-Change    Column Row Layer    Max.-Flux-Residual            L2-New               L2-Old           Solver-Max-Delh
          0                 1          10            12    4     3      -0.5390030488E+00      12    8    1      -0.1902062521E+05      0.1121232708E+06      0.6366760924E+01     -0.5390030488E+00
          0                 2           9            12    4     3       0.4892456558E-01      12    8    1       0.1877531806E+04      0.1118797814E+05      0.1121232708E+06      0.4892456558E-01
          0                 3           4            25   78     2       0.5070818207E-03      25   62    3      -0.2774652226E+01      0.3897148500E+01      0.1118797814E+05      0.5070818207E-03

    ------------------------------------------------
       NWT REQUIRED            3 OUTER ITERATIONS 
       AND A TOTAL OF         23 INNER ITERATIONS.
    ------------------------------------------------

 NO OUTPUT CONTROL FOR STRESS PERIOD   13   TIME STEP    8

 SOLVING FOR HEAD 
                                                   Max.-Head-Change                        Max.-Flux-Residual
  Residual-Control   Outer-Iter.   Inner-Iter.     Column Row Layer    Max.-Head-Change    Column Row Layer    Max.-Flux-Residual            L2-New               L2-Old           Solver-Max-Delh
          0                 1          10            12    4     3      -0.5392642442E+00      12    8    1      -0.1896140425E+05      0.1105848943E+06      0.3897148500E+01     -0.5392642442E+00
          0                 2           9            12    4     3       0.4894812958E-01      12    8    1       0.1871685008E+04      0.1103341051E+05      0.1105848943E+06      0.4894812958E-01
          0                 3           4            25   78     2       0.5033481285E-03      13   14    1       0.6502798796E+00      0.2621395389E+01      0.1103341051E+05      0.5033481285E-03

    ------------------------------------------------
       NWT REQUIRED            3 OUTER ITERATIONS 
       AND A TOTAL OF         23 INNER ITERATIONS.
    ------------------------------------------------

 NO OUTPUT CONTROL FOR STRESS PERIOD   13   TIME STEP    9

 SOLVING FOR HEAD 
                                                   Max.-Head-Change                        Max.-Flux-Residual
  Residual-Control   Outer-Iter.   Inner-Iter.     Column Row Layer    Max.-Head-Change    Column Row Layer    Max.-Flux-Residual            L2-New               L2-Old           Solver-Max-Delh
          0                 1          10            12    4     3      -0.5394206946E+00      12    8    1      -0.1890952849E+05      0.1093859713E+06      0.2621395389E+01     -0.5394206946E+00
          0                 2           9            12    4     3       0.4896221837E-01      12    8    1       0.1866556176E+04      0.1091335307E+05      0.1093859713E+06      0.4896221837E-01
          0                 3           4            25   78     2       0.4995781057E-03      13   14    1       0.6460147500E+00      0.2587996786E+01      0.1091335307E+05      0.4995781057E-03

    ------------------------------------------------
       NWT REQUIRED            3 OUTER ITERATIONS 
       AND A TOTAL OF         23 INNER ITERATIONS.
    ------------------------------------------------

 NO OUTPUT CONTROL FOR STRESS PERIOD   13   TIME STEP   10

 SOLVING FOR HEAD 
                                                   Max.-Head-Change                        Max.-Flux-Residual
  Residual-Control   Outer-Iter.   Inner-Iter.     Column Row Layer    Max.-Head-Change    Column Row Layer    Max.-Flux-Residual            L2-New               L2-Old           Solver-Max-Delh
          0                 1          10            12    3     3      -0.5396484530E+00      12    8    1      -0.1886471617E+05      0.1084286656E+06      0.2587996786E+01     -0.5396484530E+00
          0                 2           9            12    3     3       0.4896776913E-01      12    8    1       0.1862117206E+04      0.1081961674E+05      0.1084286656E+06      0.4896776913E-01
          0                 3           4            25   78     2       0.4958379109E-03      13   14    1       0.6421596408E+00      0.2498399148E+01      0.1081961674E+05      0.4958379109E-03

    ------------------------------------------------
       NWT REQUIRED            3 OUTER ITERATIONS 
       AND A TOTAL OF         23 INNER ITERATIONS.
    ------------------------------------------------

 NO OUTPUT CONTROL FOR STRESS PERIOD   13   TIME STEP   11

 SOLVING FOR HEAD 
                                                   Max.-Head-Change                        Max.-Flux-Residual
  Residual-Control   Outer-Iter.   Inner-Iter.     Column Row Layer    Max.-Head-Change    Column Row Layer    Max.-Flux-Residual            L2-New               L2-Old           Solver-Max-Delh
          0                 1          10            12    3     3      -0.5399836012E+00      12    8    1      -0.1882358596E+05      0.1076477094E+06      0.2498399148E+01     -0.5399836012E+00
          0                 2           9            12    3     3       0.4899803906E-01      12    8    1       0.1858046565E+04      0.1073926780E+05      0.1076477094E+06      0.4899803906E-01
          0                 3           4            25   78     2       0.4923217924E-03      13   14    1       0.6387144923E+00      0.2445564646E+01      0.1073926780E+05      0.4923217924E-03

    ------------------------------------------------
       NWT REQUIRED            3 OUTER ITERATIONS 
       AND A TOTAL OF         23 INNER ITERATIONS.
    ------------------------------------------------

 OUTPUT CONTROL FOR STRESS PERIOD   13   TIME STEP   12
    SAVE BUDGET
 UBDSV1 SAVING "         STORAGE" ON UNIT  39 AT TIME STEP 12, STRESS PERIOD  13
 UBDSV2 SAVING "   CONSTANT HEAD" ON UNIT  39 AT TIME STEP 12, STRESS PERIOD  13
 UBDSV1 SAVING "FLOW RIGHT FACE " ON UNIT  39 AT TIME STEP 12, STRESS PERIOD  13
 UBDSV1 SAVING "FLOW FRONT FACE " ON UNIT  39 AT TIME STEP 12, STRESS PERIOD  13
 UBDSV1 SAVING "FLOW LOWER FACE " ON UNIT  39 AT TIME STEP 12, STRESS PERIOD  13
 UBDSV3 SAVING "              ET" ON UNIT  39 AT TIME STEP 12, STRESS PERIOD  13
 UBDSV3 SAVING "        RECHARGE" ON UNIT  39 AT TIME STEP 12, STRESS PERIOD  13
1
  VOLUMETRIC BUDGET FOR ENTIRE MODEL AT END OF TIME STEP   12, STRESS PERIOD  13
  ------------------------------------------------------------------------------

     CUMULATIVE VOLUMES      L**3       RATES FOR THIS TIME STEP      L**3/T
     ------------------                 ------------------------

           IN:                                      IN:
           ---                                      ---
             STORAGE =  7565822976.0000               STORAGE =     1962535.6250
       CONSTANT HEAD =  4740875264.0000         CONSTANT HEAD =      938480.3750
               WELLS =   324179520.0000                 WELLS =           0.0000
                  ET =           0.0000                    ET =           0.0000
            RECHARGE = 57380708352.0000              RECHARGE =    12220105.0000

            TOTAL IN = 70011584512.0000              TOTAL IN =    15121121.0000

          OUT:                                     OUT:
          ----                                     ----
             STORAGE =  8913264640.0000               STORAGE =      851863.2500
       CONSTANT HEAD = 22549647360.0000         CONSTANT HEAD =     5796689.5000
               WELLS =   204709712.0000                 WELLS =      131945.0000
                  ET = 38344474624.0000                    ET =     8340652.5000
            RECHARGE =           0.0000              RECHARGE =           0.0000

           TOTAL OUT = 70012092416.0000             TOTAL OUT =    15121150.0000

            IN - OUT =     -507904.0000              IN - OUT =         -29.0000

 PERCENT DISCREPANCY =          -0.00     PERCENT DISCREPANCY =          -0.00






         TIME SUMMARY AT END OF TIME STEP   12 IN STRESS PERIOD   13
                    SECONDS     MINUTES      HOURS       DAYS        YEARS
                    -----------------------------------------------------------
   TIME STEP LENGTH 2.63520E+06  43920.      732.00      30.500     8.35044E-02
 STRESS PERIOD TIME 3.16224E+07 5.27040E+05  8784.0      366.00      1.0021    
         TOTAL TIME 4.10314E+08 6.83856E+06 1.13976E+05  4749.0      13.002    
1
1
                            STRESS PERIOD NO.   14, LENGTH =   365.0000    
                            -----------------------------------------------

                              NUMBER OF TIME STEPS =    12

                               MULTIPLIER FOR DELT =     1.000

                            INITIAL TIME STEP SIZE =   30.41667    

 WELL NO.  LAYER   ROW   COL   STRESS RATE         
 --------------------------------------------------
      1      2     22     33      -1741.    

      1 WELL 

 REUSING SURF FROM LAST STRESS PERIOD

 REUSING EVTR FROM LAST STRESS PERIOD

 REUSING EXDP FROM LAST STRESS PERIOD



                           RECHARGE
 READING ON UNIT   16 WITH FORMAT: (15F5.0)            


     63 TIME-VARIANT SPECIFIED-HEAD CELLS

 SOLVING FOR HEAD 
                                                   Max.-Head-Change                        Max.-Flux-Residual
  Residual-Control   Outer-Iter.   Inner-Iter.     Column Row Layer    Max.-Head-Change    Column Row Layer    Max.-Flux-Residual            L2-New               L2-Old           Solver-Max-Delh
          0                 1          11            92   77     2      -0.2144793440E+02      31   22    2       0.1319460168E+06      0.3401607082E+06      0.2445564646E+01     -0.2144793440E+02
          0                 2           9            92   77     2       0.7672113729E+01      31   22    2      -0.1319460190E+05      0.3431426952E+05      0.3401607082E+06      0.7672113729E+01
          0                 3           4            92   77     2       0.3791898500E+00      92   77    2       0.2139789598E+03      0.3212819490E+03      0.3431426952E+05      0.3791898500E+00
          0                 4           2            92   77     2       0.1829061991E-01      92   77    2       0.1043458879E+02      0.1392477868E+02      0.3212819490E+03      0.1829061991E-01
          0                 5           1            92   77     2       0.8831384468E-03      17   76    3      -0.5783815049E+00      0.9692933352E+00      0.1392477868E+02      0.8831384468E-03

    ------------------------------------------------
       NWT REQUIRED            5 OUTER ITERATIONS 
       AND A TOTAL OF         27 INNER ITERATIONS.
    ------------------------------------------------

 NO OUTPUT CONTROL FOR STRESS PERIOD   14   TIME STEP    1

 SOLVING FOR HEAD 
                                                   Max.-Head-Change                        Max.-Flux-Residual
  Residual-Control   Outer-Iter.   Inner-Iter.     Column Row Layer    Max.-Head-Change    Column Row Layer    Max.-Flux-Residual            L2-New               L2-Old           Solver-Max-Delh
          0                 1          10            81   45     1      -0.2373633311E+01      81   45    1      -0.7367421110E+05      0.2358307039E+06      0.9692933352E+00     -0.2373633311E+01
          0                 2           9            81   45     1       0.2148109127E+00      81   45    1       0.7357431035E+04      0.2350299830E+05      0.2358307039E+06      0.2148109127E+00
          0                 3           4            92   77     2       0.4961432531E-03      17   76    3       0.1440789382E+02      0.1626809272E+02      0.2350299830E+05      0.4961432531E-03

    ------------------------------------------------
       NWT REQUIRED            3 OUTER ITERATIONS 
       AND A TOTAL OF         23 INNER ITERATIONS.
    ------------------------------------------------

 NO OUTPUT CONTROL FOR STRESS PERIOD   14   TIME STEP    2

 SOLVING FOR HEAD 
                                                   Max.-Head-Change                        Max.-Flux-Residual
  Residual-Control   Outer-Iter.   Inner-Iter.     Column Row Layer    Max.-Head-Change    Column Row Layer    Max.-Flux-Residual            L2-New               L2-Old           Solver-Max-Delh
          0                 1          10            81   46     1      -0.2135137827E+01      81   46    1      -0.6880686389E+05      0.2050079642E+06      0.1626809272E+02     -0.2135137827E+01
          0                 2           9            81   46     1       0.1939408758E+00      81   46    1       0.6873579146E+04      0.2047820576E+05      0.2050079642E+06      0.1939408758E+00
          0                 3           4            25   78     2       0.4838606648E-03      89   65    1       0.3836303275E+01      0.6404334333E+01      0.2047820576E+05      0.4838606648E-03

    ------------------------------------------------
       NWT REQUIRED            3 OUTER ITERATIONS 
       AND A TOTAL OF         23 INNER ITERATIONS.
    ------------------------------------------------

 NO OUTPUT CONTROL FOR STRESS PERIOD   14   TIME STEP    3

 SOLVING FOR HEAD 
                                                   Max.-Head-Change                        Max.-Flux-Residual
  Residual-Control   Outer-Iter.   Inner-Iter.     Column Row Layer    Max.-Head-Change    Column Row Layer    Max.-Flux-Residual            L2-New               L2-Old           Solver-Max-Delh
          0                 1          10            81   46     1      -0.2070595074E+01      81   46    1      -0.6675783877E+05      0.1863964357E+06      0.6404334333E+01     -0.2070595074E+01
          0                 2           9            81   46     1       0.1880767196E+00      81   46    1       0.6668822431E+04      0.1864676745E+05      0.1863964357E+06      0.1880767196E+00
          0                 3           4            25   78     2       0.4814936914E-03      91   67    1       0.1708439413E+01      0.3679605684E+01      0.1864676745E+05      0.4814936914E-03

    ------------------------------------------------
       NWT REQUIRED            3 OUTER ITERATIONS 
       AND A TOTAL OF         23 INNER ITERATIONS.
    ------------------------------------------------

 NO OUTPUT CONTROL FOR STRESS PERIOD   14   TIME STEP    4

 SOLVING FOR HEAD 
                                                   Max.-Head-Change                        Max.-Flux-Residual
  Residual-Control   Outer-Iter.   Inner-Iter.     Column Row Layer    Max.-Head-Change    Column Row Layer    Max.-Flux-Residual            L2-New               L2-Old           Solver-Max-Delh
          0                 1          10            81   46     1      -0.2007167010E+01      81   46    1      -0.6473906944E+05      0.1731811960E+06      0.3679605684E+01     -0.2007167010E+01
          0                 2           9            81   46     1       0.1823248020E+00      81   46    1       0.6467174347E+04      0.1728131316E+05      0.1731811960E+06      0.1823248020E+00
          0                 3           3            25   78     2       0.4793883095E-03      91   67    1       0.1637105249E+01      0.3264669472E+01      0.1728131316E+05      0.4793883095E-03

    ------------------------------------------------
       NWT REQUIRED            3 OUTER ITERATIONS 
       AND A TOTAL OF         22 INNER ITERATIONS.
    ------------------------------------------------

 NO OUTPUT CONTROL FOR STRESS PERIOD   14   TIME STEP    5

 SOLVING FOR HEAD 
                                                   Max.-Head-Change                        Max.-Flux-Residual
  Residual-Control   Outer-Iter.   Inner-Iter.     Column Row Layer    Max.-Head-Change    Column Row Layer    Max.-Flux-Residual            L2-New               L2-Old           Solver-Max-Delh
          0                 1          10            81   46     1      -0.1944973462E+01      81   46    1      -0.6275484249E+05      0.1631542370E+06      0.3264669472E+01     -0.1944973462E+01
          0                 2           9            81   46     1       0.1766684281E+00      81   46    1       0.6269032539E+04      0.1628171671E+05      0.1631542370E+06      0.1766684281E+00
          0                 3           3            25   78     2       0.4779007423E-03      91   67    1       0.1571072150E+01      0.3580364526E+01      0.1628171671E+05      0.4779007423E-03

    ------------------------------------------------
       NWT REQUIRED            3 OUTER ITERATIONS 
       AND A TOTAL OF         22 INNER ITERATIONS.
    ------------------------------------------------

 NO OUTPUT CONTROL FOR STRESS PERIOD   14   TIME STEP    6

 SOLVING FOR HEAD 
                                                   Max.-Head-Change                        Max.-Flux-Residual
  Residual-Control   Outer-Iter.   Inner-Iter.     Column Row Layer    Max.-Head-Change    Column Row Layer    Max.-Flux-Residual            L2-New               L2-Old           Solver-Max-Delh
          0                 1          10            81   46     1      -0.1884158199E+01      81   46    1      -0.6080986023E+05      0.1553287560E+06      0.3580364526E+01     -0.1884158199E+01
          0                 2           9            81   46     1       0.2332604257E+00      81   46    1       0.9028647103E+04      0.1688071808E+05      0.1553287560E+06      0.2332604257E+00
          0                 3           3            25   78     2       0.4767678020E-03      91   67    1       0.1509883966E+01      0.3138798738E+01      0.1688071808E+05      0.4767678020E-03

    ------------------------------------------------
       NWT REQUIRED            3 OUTER ITERATIONS 
       AND A TOTAL OF         22 INNER ITERATIONS.
    ------------------------------------------------

 NO OUTPUT CONTROL FOR STRESS PERIOD   14   TIME STEP    7

 SOLVING FOR HEAD 
                                                   Max.-Head-Change                        Max.-Flux-Residual
  Residual-Control   Outer-Iter.   Inner-Iter.     Column Row Layer    Max.-Head-Change    Column Row Layer    Max.-Flux-Residual            L2-New               L2-Old           Solver-Max-Delh
          0                 1          10            81   46     1      -0.1617504349E+01      81   46    1      -0.5677178233E+05      0.1482679369E+06      0.3138798738E+01     -0.1617504349E+01
          0                 2           9            81   46     1       0.1469521042E+00      81   46    1       0.5672729470E+04      0.1488206410E+05      0.1482679369E+06      0.1469521042E+00
          0                 3           3            64   27     1       0.4098108464E-02      64   27    1       0.6652726214E+02      0.6831336685E+02      0.1488206410E+05      0.4098108464E-02

    ------------------------------------------------
       NWT REQUIRED            3 OUTER ITERATIONS 
       AND A TOTAL OF         22 INNER ITERATIONS.
    ------------------------------------------------

 NO OUTPUT CONTROL FOR STRESS PERIOD   14   TIME STEP    8

 SOLVING FOR HEAD 
                                                   Max.-Head-Change                        Max.-Flux-Residual
  Residual-Control   Outer-Iter.   Inner-Iter.     Column Row Layer    Max.-Head-Change    Column Row Layer    Max.-Flux-Residual            L2-New               L2-Old           Solver-Max-Delh
          0                 1          10            81   46     1      -0.1441339449E+01      81   46    1      -0.5056944378E+05      0.1415643355E+06      0.6831336685E+02     -0.1441339449E+01
          0                 2           9            81   46     1       0.1306242329E+00      81   46    1       0.5036089630E+04      0.1412149077E+05      0.1415643355E+06      0.1306242329E+00
          0                 3           3            25   78     2       0.4757334608E-03      91   67    1       0.1400413167E+01      0.3250096830E+01      0.1412149077E+05      0.4757334608E-03

    ------------------------------------------------
       NWT REQUIRED            3 OUTER ITERATIONS 
       AND A TOTAL OF         22 INNER ITERATIONS.
    ------------------------------------------------

 NO OUTPUT CONTROL FOR STRESS PERIOD   14   TIME STEP    9

 SOLVING FOR HEAD 
                                                   Max.-Head-Change                        Max.-Flux-Residual
  Residual-Control   Outer-Iter.   Inner-Iter.     Column Row Layer    Max.-Head-Change    Column Row Layer    Max.-Flux-Residual            L2-New               L2-Old           Solver-Max-Delh
          0                 1          10            81   46     1      -0.1286235020E+01      81   46    1      -0.4507254764E+05      0.1360436110E+06      0.3250096830E+01     -0.1286235020E+01
          0                 2           9            81   46     1       0.1168903281E+00      81   46    1       0.4505367626E+04      0.1358213046E+05      0.1360436110E+06      0.1168903281E+00
          0                 3           3            25   78     2       0.4758509024E-03      85   58    3       0.1838900235E+01      0.3839600540E+01      0.1358213046E+05      0.4758509024E-03

    ------------------------------------------------
       NWT REQUIRED            3 OUTER ITERATIONS 
       AND A TOTAL OF         22 INNER ITERATIONS.
    ------------------------------------------------

 NO OUTPUT CONTROL FOR STRESS PERIOD   14   TIME STEP   10

 SOLVING FOR HEAD 
                                                   Max.-Head-Change                        Max.-Flux-Residual
  Residual-Control   Outer-Iter.   Inner-Iter.     Column Row Layer    Max.-Head-Change    Column Row Layer    Max.-Flux-Residual            L2-New               L2-Old           Solver-Max-Delh
          0                 1          10            81   46     1      -0.1147878973E+01      81   46    1      -0.4021082236E+05      0.1315404897E+06      0.3839600540E+01     -0.1147878973E+01
          0                 2           9            81   46     1       0.1043204956E+00      81   46    1       0.4019576551E+04      0.1313031389E+05      0.1315404897E+06      0.1043204956E+00
          0                 3           3            25   78     2       0.4761454259E-03      72   49    1       0.1822866488E+01      0.3892898185E+01      0.1313031389E+05      0.4761454259E-03

    ------------------------------------------------
       NWT REQUIRED            3 OUTER ITERATIONS 
       AND A TOTAL OF         22 INNER ITERATIONS.
    ------------------------------------------------

 NO OUTPUT CONTROL FOR STRESS PERIOD   14   TIME STEP   11

 SOLVING FOR HEAD 
                                                   Max.-Head-Change                        Max.-Flux-Residual
  Residual-Control   Outer-Iter.   Inner-Iter.     Column Row Layer    Max.-Head-Change    Column Row Layer    Max.-Flux-Residual            L2-New               L2-Old           Solver-Max-Delh
          0                 1          10            81   46     1      -0.1024752257E+01      81   46    1      -0.3588509683E+05      0.1278465698E+06      0.3892898185E+01     -0.1024752257E+01
          0                 2           9            81   46     1       0.9313350368E-01      81   46    1       0.3587306761E+04      0.1276091681E+05      0.1278465698E+06      0.9313350368E-01
          0                 3           3            25   78     2       0.4767888178E-03      91   67    1       0.1263297308E+01      0.2948710368E+01      0.1276091681E+05      0.4767888178E-03

    ------------------------------------------------
       NWT REQUIRED            3 OUTER ITERATIONS 
       AND A TOTAL OF         22 INNER ITERATIONS.
    ------------------------------------------------

 OUTPUT CONTROL FOR STRESS PERIOD   14   TIME STEP   12
    SAVE BUDGET
 UBDSV1 SAVING "         STORAGE" ON UNIT  39 AT TIME STEP 12, STRESS PERIOD  14
 UBDSV2 SAVING "   CONSTANT HEAD" ON UNIT  39 AT TIME STEP 12, STRESS PERIOD  14
 UBDSV1 SAVING "FLOW RIGHT FACE " ON UNIT  39 AT TIME STEP 12, STRESS PERIOD  14
 UBDSV1 SAVING "FLOW FRONT FACE " ON UNIT  39 AT TIME STEP 12, STRESS PERIOD  14
 UBDSV1 SAVING "FLOW LOWER FACE " ON UNIT  39 AT TIME STEP 12, STRESS PERIOD  14
 UBDSV3 SAVING "              ET" ON UNIT  39 AT TIME STEP 12, STRESS PERIOD  14
 UBDSV3 SAVING "        RECHARGE" ON UNIT  39 AT TIME STEP 12, STRESS PERIOD  14
1
  VOLUMETRIC BUDGET FOR ENTIRE MODEL AT END OF TIME STEP   12, STRESS PERIOD  14
  ------------------------------------------------------------------------------

     CUMULATIVE VOLUMES      L**3       RATES FOR THIS TIME STEP      L**3/T
     ------------------                 ------------------------

           IN:                                      IN:
           ---                                      ---
             STORAGE =  8548716032.0000               STORAGE =     2392394.0000
       CONSTANT HEAD =  5067101184.0000         CONSTANT HEAD =      876206.0000
               WELLS =   324179520.0000                 WELLS =           0.0000
                  ET =           0.0000                    ET =           0.0000
            RECHARGE = 61655310336.0000              RECHARGE =    11711238.0000

            TOTAL IN = 75595309056.0000              TOTAL IN =    14979838.0000

          OUT:                                     OUT:
          ----                                     ----
             STORAGE =  9370166272.0000               STORAGE =      959429.8750
       CONSTANT HEAD = 24705513472.0000         CONSTANT HEAD =     5984010.0000
               WELLS =   205345232.0000                 WELLS =        1741.0000
                  ET = 41314803712.0000                    ET =     8034683.0000
            RECHARGE =           0.0000              RECHARGE =           0.0000

           TOTAL OUT = 75595825152.0000             TOTAL OUT =    14979864.0000

            IN - OUT =     -516096.0000              IN - OUT =         -26.0000

 PERCENT DISCREPANCY =          -0.00     PERCENT DISCREPANCY =          -0.00






         TIME SUMMARY AT END OF TIME STEP   12 IN STRESS PERIOD   14
                    SECONDS     MINUTES      HOURS       DAYS        YEARS
                    -----------------------------------------------------------
   TIME STEP LENGTH 2.62800E+06  43800.      730.00      30.417     8.32763E-02
 STRESS PERIOD TIME 3.15360E+07 5.25600E+05  8760.0      365.00     0.99932    
         TOTAL TIME 4.41850E+08 7.36416E+06 1.22736E+05  5114.0      14.001    
1
1
                            STRESS PERIOD NO.   15, LENGTH =   365.0000    
                            -----------------------------------------------

                              NUMBER OF TIME STEPS =    12

                               MULTIPLIER FOR DELT =     1.000

                            INITIAL TIME STEP SIZE =   30.41667    

 WELL NO.  LAYER   ROW   COL   STRESS RATE         
 --------------------------------------------------
      1      1     23     35     -0.5091E+05

      1 WELL 

 REUSING SURF FROM LAST STRESS PERIOD

 REUSING EVTR FROM LAST STRESS PERIOD

 REUSING EXDP FROM LAST STRESS PERIOD



                           RECHARGE
 READING ON UNIT   16 WITH FORMAT: (15F5.0)            


     63 TIME-VARIANT SPECIFIED-HEAD CELLS

 SOLVING FOR HEAD 
                                                   Max.-Head-Change                        Max.-Flux-Residual
  Residual-Control   Outer-Iter.   Inner-Iter.     Column Row Layer    Max.-Head-Change    Column Row Layer    Max.-Flux-Residual            L2-New               L2-Old           Solver-Max-Delh
          0                 1          11            65    2     2       0.2190336427E+02      24   22    1       0.1329575346E+06      0.7041309895E+06      0.2948710368E+01      0.2190336427E+02
          0                 2          10            92   77     2       0.1017144651E+01      24   22    1      -0.1374977718E+05      0.7177526596E+05      0.7041309895E+06      0.1017144651E+01
          0                 3           5            65    2     2      -0.4271579742E-01      62   89    1      -0.1668642431E+03      0.2927198719E+03      0.7177526596E+05     -0.4271579742E-01
          0                 4           4            65    2     2      -0.2447267177E-02      61   89    1       0.1336877263E+02      0.1407268995E+02      0.2927198719E+03     -0.2447267177E-02

    ------------------------------------------------
       NWT REQUIRED            4 OUTER ITERATIONS 
       AND A TOTAL OF         30 INNER ITERATIONS.
    ------------------------------------------------

 NO OUTPUT CONTROL FOR STRESS PERIOD   15   TIME STEP    1

 SOLVING FOR HEAD 
                                                   Max.-Head-Change                        Max.-Flux-Residual
  Residual-Control   Outer-Iter.   Inner-Iter.     Column Row Layer    Max.-Head-Change    Column Row Layer    Max.-Flux-Residual            L2-New               L2-Old           Solver-Max-Delh
          0                 1          11            81   45     1       0.2694647575E+01      81   45    1       0.8351870569E+05      0.4653982895E+06      0.1407268995E+02      0.2694647575E+01
          0                 2          10            81   45     1      -0.2451441257E+00      81   45    1      -0.8359359906E+04      0.4675743245E+05      0.4653982895E+06     -0.2451441257E+00
          0                 3           4            91   51     3      -0.6650746447E-03      60   61    1       0.1436696452E+02      0.2424775222E+02      0.4675743245E+05     -0.6650746447E-03

    ------------------------------------------------
       NWT REQUIRED            3 OUTER ITERATIONS 
       AND A TOTAL OF         25 INNER ITERATIONS.
    ------------------------------------------------

 NO OUTPUT CONTROL FOR STRESS PERIOD   15   TIME STEP    2

 SOLVING FOR HEAD 
                                                   Max.-Head-Change                        Max.-Flux-Residual
  Residual-Control   Outer-Iter.   Inner-Iter.     Column Row Layer    Max.-Head-Change    Column Row Layer    Max.-Flux-Residual            L2-New               L2-Old           Solver-Max-Delh
          0                 1          11            81   45     1       0.2356509039E+01      81   45    1       0.7299877109E+05      0.3857250538E+06      0.2424775222E+02      0.2356509039E+01
          0                 2           9            81   45     1      -0.2151256682E+00      81   45    1      -0.7340134943E+04      0.3870068566E+05      0.3857250538E+06     -0.2151256682E+00
          0                 3           4            73   15     1      -0.5505939611E-03      59   63    1       0.1851359439E+02      0.2602671538E+02      0.3870068566E+05     -0.5505939611E-03

    ------------------------------------------------
       NWT REQUIRED            3 OUTER ITERATIONS 
       AND A TOTAL OF         24 INNER ITERATIONS.
    ------------------------------------------------

 NO OUTPUT CONTROL FOR STRESS PERIOD   15   TIME STEP    3

 SOLVING FOR HEAD 
                                                   Max.-Head-Change                        Max.-Flux-Residual
  Residual-Control   Outer-Iter.   Inner-Iter.     Column Row Layer    Max.-Head-Change    Column Row Layer    Max.-Flux-Residual            L2-New               L2-Old           Solver-Max-Delh
          0                 1          11            81   45     1       0.2058988826E+01      81   45    1       0.6381736310E+05      0.3430483073E+06      0.2602671538E+02      0.2058988826E+01
          0                 2           9            81   45     1      -0.1871037846E+00      81   45    1      -0.6389491724E+04      0.3400125993E+05      0.3430483073E+06     -0.1871037846E+00
          0                 3           3            73   15     1      -0.5488554109E-03      70   19    1      -0.2279200621E+01      0.6273799456E+01      0.3400125993E+05     -0.5488554109E-03

    ------------------------------------------------
       NWT REQUIRED            3 OUTER ITERATIONS 
       AND A TOTAL OF         23 INNER ITERATIONS.
    ------------------------------------------------

 NO OUTPUT CONTROL FOR STRESS PERIOD   15   TIME STEP    4

 SOLVING FOR HEAD 
                                                   Max.-Head-Change                        Max.-Flux-Residual
  Residual-Control   Outer-Iter.   Inner-Iter.     Column Row Layer    Max.-Head-Change    Column Row Layer    Max.-Flux-Residual            L2-New               L2-Old           Solver-Max-Delh
          0                 1          11            81   45     1       0.1801897026E+01      81   45    1       0.5578659681E+05      0.3147034288E+06      0.6273799456E+01      0.1801897026E+01
          0                 2           9            81   45     1      -0.1639360266E+00      81   45    1      -0.5584253379E+04      0.3149704546E+05      0.3147034288E+06     -0.1639360266E+00
          0                 3           5            51   32     2      -0.2971853268E-02      56  116    1      -0.1039370926E+03      0.1273779723E+03      0.3149704546E+05     -0.2971853268E-02

    ------------------------------------------------
       NWT REQUIRED            3 OUTER ITERATIONS 
       AND A TOTAL OF         25 INNER ITERATIONS.
    ------------------------------------------------

 NO OUTPUT CONTROL FOR STRESS PERIOD   15   TIME STEP    5

 SOLVING FOR HEAD 
                                                   Max.-Head-Change                        Max.-Flux-Residual
  Residual-Control   Outer-Iter.   Inner-Iter.     Column Row Layer    Max.-Head-Change    Column Row Layer    Max.-Flux-Residual            L2-New               L2-Old           Solver-Max-Delh
          0                 1          11            81   46     1       0.1585964087E+01      81   46    1       0.5099382942E+05      0.2943353914E+06      0.1273779723E+03      0.1585964087E+01
          0                 2           9            81   46     1      -0.1442645179E+00      81   46    1      -0.5103154774E+04      0.2953408903E+05      0.2943353914E+06     -0.1442645179E+00
          0                 3           5            73   15     1      -0.5434491505E-03      63   88    1       0.5023648608E+02      0.5056270352E+02      0.2953408903E+05     -0.5434491505E-03

    ------------------------------------------------
       NWT REQUIRED            3 OUTER ITERATIONS 
       AND A TOTAL OF         25 INNER ITERATIONS.
    ------------------------------------------------

 NO OUTPUT CONTROL FOR STRESS PERIOD   15   TIME STEP    6

 SOLVING FOR HEAD 
                                                   Max.-Head-Change                        Max.-Flux-Residual
  Residual-Control   Outer-Iter.   Inner-Iter.     Column Row Layer    Max.-Head-Change    Column Row Layer    Max.-Flux-Residual            L2-New               L2-Old           Solver-Max-Delh
          0                 1          11            81   46     1       0.1540718929E+01      81   46    1       0.4957903418E+05      0.2785765058E+06      0.5056270352E+02      0.1540718929E+01
          0                 2           9            81   46     1      -0.1402103004E+00      81   46    1      -0.4961631129E+04      0.2783840954E+05      0.2785765058E+06     -0.1402103004E+00
          0                 3           3            92   52     3      -0.1733249021E-02      92   52    3      -0.6312651236E+01      0.1051543090E+02      0.2783840954E+05     -0.1733249021E-02

    ------------------------------------------------
       NWT REQUIRED            3 OUTER ITERATIONS 
       AND A TOTAL OF         23 INNER ITERATIONS.
    ------------------------------------------------

 NO OUTPUT CONTROL FOR STRESS PERIOD   15   TIME STEP    7

 SOLVING FOR HEAD 
                                                   Max.-Head-Change                        Max.-Flux-Residual
  Residual-Control   Outer-Iter.   Inner-Iter.     Column Row Layer    Max.-Head-Change    Column Row Layer    Max.-Flux-Residual            L2-New               L2-Old           Solver-Max-Delh
          0                 1          11            81   46     1       0.1495547012E+01      81   46    1       0.4816295878E+05      0.2660366976E+06      0.1051543090E+02      0.1495547012E+01
          0                 2           9            81   46     1      -0.1360411507E+00      81   46    1      -0.4819925156E+04      0.2657668445E+05      0.2660366976E+06     -0.1360411507E+00
          0                 3           4            73   15     1      -0.5358642851E-03      63   85    2       0.2889409766E+01      0.7924311645E+01      0.2657668445E+05     -0.5358642851E-03

    ------------------------------------------------
       NWT REQUIRED            3 OUTER ITERATIONS 
       AND A TOTAL OF         24 INNER ITERATIONS.
    ------------------------------------------------

 NO OUTPUT CONTROL FOR STRESS PERIOD   15   TIME STEP    8

 SOLVING FOR HEAD 
                                                   Max.-Head-Change                        Max.-Flux-Residual
  Residual-Control   Outer-Iter.   Inner-Iter.     Column Row Layer    Max.-Head-Change    Column Row Layer    Max.-Flux-Residual            L2-New               L2-Old           Solver-Max-Delh
          0                 1          11            81   46     1       0.1450836529E+01      81   46    1       0.4675330760E+05      0.2557685378E+06      0.7924311645E+01      0.1450836529E+01
          0                 2           9            81   46     1      -0.1319733495E+00      81   46    1      -0.4678825113E+04      0.2565239028E+05      0.2557685378E+06     -0.1319733495E+00
          0                 3           3            73   15     1      -0.5314016988E-03      59   78    1      -0.2321193278E+01      0.6259926342E+01      0.2565239028E+05     -0.5314016988E-03

    ------------------------------------------------
       NWT REQUIRED            3 OUTER ITERATIONS 
       AND A TOTAL OF         23 INNER ITERATIONS.
    ------------------------------------------------

 NO OUTPUT CONTROL FOR STRESS PERIOD   15   TIME STEP    9

 SOLVING FOR HEAD 
                                                   Max.-Head-Change                        Max.-Flux-Residual
  Residual-Control   Outer-Iter.   Inner-Iter.     Column Row Layer    Max.-Head-Change    Column Row Layer    Max.-Flux-Residual            L2-New               L2-Old           Solver-Max-Delh
          0                 1          11            81   46     1       0.1406665270E+01      81   46    1       0.4535600953E+05      0.2471969538E+06      0.6259926342E+01      0.1406665270E+01
          0                 2           9            81   46     1      -0.1276076161E+00      81   46    1      -0.4538938122E+04      0.2474584333E+05      0.2471969538E+06     -0.1276076161E+00
          0                 3           3            73   15     1      -0.5265646961E-03      70   19    1      -0.1560723688E+01      0.5212833022E+01      0.2474584333E+05     -0.5265646961E-03

    ------------------------------------------------
       NWT REQUIRED            3 OUTER ITERATIONS 
       AND A TOTAL OF         23 INNER ITERATIONS.
    ------------------------------------------------

 NO OUTPUT CONTROL FOR STRESS PERIOD   15   TIME STEP   10

 SOLVING FOR HEAD 
                                                   Max.-Head-Change                        Max.-Flux-Residual
  Residual-Control   Outer-Iter.   Inner-Iter.     Column Row Layer    Max.-Head-Change    Column Row Layer    Max.-Flux-Residual            L2-New               L2-Old           Solver-Max-Delh
          0                 1          11            81   46     1       0.1364477163E+01      81   46    1       0.4398746427E+05      0.2399692936E+06      0.5212833022E+01      0.1364477163E+01
          0                 2           9            81   46     1      -0.1241140866E+00      81   46    1      -0.4401878368E+04      0.2407438217E+05      0.2399692936E+06     -0.1241140866E+00
          0                 3           3            73   15     1      -0.5213957870E-03      70   19    1      -0.1477032073E+01      0.5137662461E+01      0.2407438217E+05     -0.5213957870E-03

    ------------------------------------------------
       NWT REQUIRED            3 OUTER ITERATIONS 
       AND A TOTAL OF         23 INNER ITERATIONS.
    ------------------------------------------------

 NO OUTPUT CONTROL FOR STRESS PERIOD   15   TIME STEP   11

 SOLVING FOR HEAD 
                                                   Max.-Head-Change                        Max.-Flux-Residual
  Residual-Control   Outer-Iter.   Inner-Iter.     Column Row Layer    Max.-Head-Change    Column Row Layer    Max.-Flux-Residual            L2-New               L2-Old           Solver-Max-Delh
          0                 1          11            81   46     1       0.1323131107E+01      81   46    1       0.4265709237E+05      0.2337590696E+06      0.5137662461E+01      0.1323131107E+01
          0                 2           9            81   46     1      -0.1211122447E+00      81   46    1      -0.4299483035E+04      0.2337039582E+05      0.2337590696E+06     -0.1211122447E+00
          0                 3           4            73   15     1      -0.5159431659E-03      63   87    1       0.3465465307E+01      0.6167982207E+01      0.2337039582E+05     -0.5159431659E-03

    ------------------------------------------------
       NWT REQUIRED            3 OUTER ITERATIONS 
       AND A TOTAL OF         24 INNER ITERATIONS.
    ------------------------------------------------

 OUTPUT CONTROL FOR STRESS PERIOD   15   TIME STEP   12
    SAVE BUDGET
 UBDSV1 SAVING "         STORAGE" ON UNIT  39 AT TIME STEP 12, STRESS PERIOD  15
 UBDSV2 SAVING "   CONSTANT HEAD" ON UNIT  39 AT TIME STEP 12, STRESS PERIOD  15
 UBDSV1 SAVING "FLOW RIGHT FACE " ON UNIT  39 AT TIME STEP 12, STRESS PERIOD  15
 UBDSV1 SAVING "FLOW FRONT FACE " ON UNIT  39 AT TIME STEP 12, STRESS PERIOD  15
 UBDSV1 SAVING "FLOW LOWER FACE " ON UNIT  39 AT TIME STEP 12, STRESS PERIOD  15
 UBDSV3 SAVING "              ET" ON UNIT  39 AT TIME STEP 12, STRESS PERIOD  15
 UBDSV3 SAVING "        RECHARGE" ON UNIT  39 AT TIME STEP 12, STRESS PERIOD  15
1
  VOLUMETRIC BUDGET FOR ENTIRE MODEL AT END OF TIME STEP   12, STRESS PERIOD  15
  ------------------------------------------------------------------------------

     CUMULATIVE VOLUMES      L**3       RATES FOR THIS TIME STEP      L**3/T
     ------------------                 ------------------------

           IN:                                      IN:
           ---                                      ---
             STORAGE =  8919155712.0000               STORAGE =      973704.6250
       CONSTANT HEAD =  5362534912.0000         CONSTANT HEAD =      783454.6875
               WELLS =   324179520.0000                 WELLS =           0.0000
                  ET =           0.0000                    ET =           0.0000
            RECHARGE = 69926412288.0000              RECHARGE =    22660606.0000

            TOTAL IN = 84532281344.0000              TOTAL IN =    24417766.0000

          OUT:                                     OUT:
          ----                                     ----
             STORAGE = 12574625792.0000               STORAGE =     7895750.5000
       CONSTANT HEAD = 26956951552.0000         CONSTANT HEAD =     6281373.0000
               WELLS =   223928912.0000                 WELLS =       50914.0000
                  ET = 44777324544.0000                    ET =    10189753.0000
            RECHARGE =           0.0000              RECHARGE =           0.0000

           TOTAL OUT = 84532830208.0000             TOTAL OUT =    24417792.0000

            IN - OUT =     -548864.0000              IN - OUT =         -26.0000

 PERCENT DISCREPANCY =          -0.00     PERCENT DISCREPANCY =          -0.00






         TIME SUMMARY AT END OF TIME STEP   12 IN STRESS PERIOD   15
                    SECONDS     MINUTES      HOURS       DAYS        YEARS
                    -----------------------------------------------------------
   TIME STEP LENGTH 2.62800E+06  43800.      730.00      30.417     8.32763E-02
 STRESS PERIOD TIME 3.15360E+07 5.25600E+05  8760.0      365.00     0.99932    
         TOTAL TIME 4.73385E+08 7.88976E+06 1.31496E+05  5479.0      15.001    
1
1
                            STRESS PERIOD NO.   16, LENGTH =   365.0000    
                            -----------------------------------------------

                              NUMBER OF TIME STEPS =    12

                               MULTIPLIER FOR DELT =     1.000

                            INITIAL TIME STEP SIZE =   30.41667    

 WELL NO.  LAYER   ROW   COL   STRESS RATE         
 --------------------------------------------------
      1      1     25     34     -0.7803E+05
      2      2     25     34     -0.7497E+05

      2 WELLS

 REUSING SURF FROM LAST STRESS PERIOD

 REUSING EVTR FROM LAST STRESS PERIOD

 REUSING EXDP FROM LAST STRESS PERIOD



                           RECHARGE
 READING ON UNIT   16 WITH FORMAT: (15F5.0)            


     63 TIME-VARIANT SPECIFIED-HEAD CELLS

 SOLVING FOR HEAD 
                                                   Max.-Head-Change                        Max.-Flux-Residual
  Residual-Control   Outer-Iter.   Inner-Iter.     Column Row Layer    Max.-Head-Change    Column Row Layer    Max.-Flux-Residual            L2-New               L2-Old           Solver-Max-Delh
          0                 1          11            13   85     1       0.1802843767E+02      24   22    1      -0.1215462352E+06      0.4469671133E+06      0.6167982207E+01      0.1802843767E+02
          0                 2          10            70   18     1      -0.1353088594E+01      70   18    1      -0.4393405137E+05      0.6261726879E+05      0.4469671133E+06     -0.1353088594E+01
          0                 3           5            13   85     1      -0.2404215406E-01      28   61    2      -0.1214870701E+03      0.1840835152E+03      0.6261726879E+05     -0.2404215406E-01
          0                 4           3            13   85     1      -0.1796924581E-02      61   93    1       0.3739356101E+01      0.7153548527E+01      0.1840835152E+03     -0.1796924581E-02

    ------------------------------------------------
       NWT REQUIRED            4 OUTER ITERATIONS 
       AND A TOTAL OF         29 INNER ITERATIONS.
    ------------------------------------------------

 NO OUTPUT CONTROL FOR STRESS PERIOD   16   TIME STEP    1

 SOLVING FOR HEAD 
                                                   Max.-Head-Change                        Max.-Flux-Residual
  Residual-Control   Outer-Iter.   Inner-Iter.     Column Row Layer    Max.-Head-Change    Column Row Layer    Max.-Flux-Residual            L2-New               L2-Old           Solver-Max-Delh
          0                 1          11            81   45     1      -0.1261462093E+01      81   45    1      -0.3579630250E+05      0.3358666440E+06      0.7153548527E+01     -0.1261462093E+01
          0                 2          10            81   45     1       0.1206895499E+00      81   45    1       0.4144976917E+04      0.3381741913E+05      0.3358666440E+06      0.1206895499E+00
          0                 3           5            92   52     3       0.2972078094E-02      56   37    2      -0.1196809115E+03      0.1508215497E+03      0.3381741913E+05      0.2972078094E-02

    ------------------------------------------------
       NWT REQUIRED            3 OUTER ITERATIONS 
       AND A TOTAL OF         26 INNER ITERATIONS.
    ------------------------------------------------

 NO OUTPUT CONTROL FOR STRESS PERIOD   16   TIME STEP    2

 SOLVING FOR HEAD 
                                                   Max.-Head-Change                        Max.-Flux-Residual
  Residual-Control   Outer-Iter.   Inner-Iter.     Column Row Layer    Max.-Head-Change    Column Row Layer    Max.-Flux-Residual            L2-New               L2-Old           Solver-Max-Delh
          0                 1          11            81   45     1      -0.1089936693E+01      81   45    1      -0.3399954435E+05      0.3062230218E+06      0.1508215497E+03     -0.1089936693E+01
          0                 2          10            81   45     1       0.9902807674E-01      81   45    1       0.3397403940E+04      0.3064558961E+05      0.3062230218E+06      0.9902807674E-01
          0                 3           5            56  103     3      -0.8222972622E-03      56  103    3      -0.2436351468E+02      0.2903602635E+02      0.3064558961E+05     -0.8222972622E-03

    ------------------------------------------------
       NWT REQUIRED            3 OUTER ITERATIONS 
       AND A TOTAL OF         26 INNER ITERATIONS.
    ------------------------------------------------

 NO OUTPUT CONTROL FOR STRESS PERIOD   16   TIME STEP    3

 SOLVING FOR HEAD 
                                                   Max.-Head-Change                        Max.-Flux-Residual
  Residual-Control   Outer-Iter.   Inner-Iter.     Column Row Layer    Max.-Head-Change    Column Row Layer    Max.-Flux-Residual            L2-New               L2-Old           Solver-Max-Delh
          0                 1          11            81   45     1      -0.9475067875E+00      81   45    1      -0.2953277358E+05      0.2910655837E+06      0.2903602635E+02     -0.9475067875E+00
          0                 2          10            81   45     1       0.8609504960E-01      81   45    1       0.2951400229E+04      0.2921028725E+05      0.2910655837E+06      0.8609504960E-01
          0                 3           5            65    8     3      -0.6644304940E-02      65    8    3      -0.8251397928E+02      0.9877936982E+02      0.2921028725E+05     -0.6644304940E-02

    ------------------------------------------------
       NWT REQUIRED            3 OUTER ITERATIONS 
       AND A TOTAL OF         26 INNER ITERATIONS.
    ------------------------------------------------

 NO OUTPUT CONTROL FOR STRESS PERIOD   16   TIME STEP    4

 SOLVING FOR HEAD 
                                                   Max.-Head-Change                        Max.-Flux-Residual
  Residual-Control   Outer-Iter.   Inner-Iter.     Column Row Layer    Max.-Head-Change    Column Row Layer    Max.-Flux-Residual            L2-New               L2-Old           Solver-Max-Delh
          0                 1          11            81   45     1      -0.8243515860E+00      81   45    1      -0.2567310845E+05      0.2806515391E+06      0.9877936982E+02     -0.8243515860E+00
          0                 2          10            81   45     1       0.7491027314E-01      81   45    1       0.2565931968E+04      0.2798833416E+05      0.2806515391E+06      0.7491027314E-01
          0                 3           4            73   15     1      -0.7272286782E-03      91   67    1      -0.1926549859E+01      0.8729787796E+01      0.2798833416E+05     -0.7272286782E-03

    ------------------------------------------------
       NWT REQUIRED            3 OUTER ITERATIONS 
       AND A TOTAL OF         25 INNER ITERATIONS.
    ------------------------------------------------

 NO OUTPUT CONTROL FOR STRESS PERIOD   16   TIME STEP    5

 SOLVING FOR HEAD 
                                                   Max.-Head-Change                        Max.-Flux-Residual
  Residual-Control   Outer-Iter.   Inner-Iter.     Column Row Layer    Max.-Head-Change    Column Row Layer    Max.-Flux-Residual            L2-New               L2-Old           Solver-Max-Delh
          0                 1          11            73   15     3       0.7263654458E+00      12   10    1      -0.2537235304E+05      0.2726238303E+06      0.8729787796E+01      0.7263654458E+00
          0                 2          10            56  106     2       0.2361211359E+00      12   10    1       0.2484867258E+04      0.2732046853E+05      0.2726238303E+06      0.2361211359E+00
          0                 3           5            56  106     2      -0.2146766407E-01      56  106    2      -0.2299809013E+03      0.2458147137E+03      0.2732046853E+05     -0.2146766407E-01
          0                 4           2            25   78     2       0.1141598102E-03      60  114    2       0.4141838476E-01      0.1099966995E+00      0.2458147137E+03      0.1141598102E-03

    ------------------------------------------------
       NWT REQUIRED            4 OUTER ITERATIONS 
       AND A TOTAL OF         28 INNER ITERATIONS.
    ------------------------------------------------

 NO OUTPUT CONTROL FOR STRESS PERIOD   16   TIME STEP    6

 SOLVING FOR HEAD 
                                                   Max.-Head-Change                        Max.-Flux-Residual
  Residual-Control   Outer-Iter.   Inner-Iter.     Column Row Layer    Max.-Head-Change    Column Row Layer    Max.-Flux-Residual            L2-New               L2-Old           Solver-Max-Delh
          0                 1          11            73   15     3       0.7174418322E+00      12   10    1      -0.2553251263E+05      0.2661035658E+06      0.1099966995E+00      0.7174418322E+00
          0                 2          10            73   15     3      -0.6373701163E-01      12   10    1       0.2500008211E+04      0.2659382469E+05      0.2661035658E+06     -0.6373701163E-01
          0                 3           4            73   15     1      -0.7097956574E-03      91   67    1      -0.1781556308E+01      0.8405161785E+01      0.2659382469E+05     -0.7097956574E-03

    ------------------------------------------------
       NWT REQUIRED            3 OUTER ITERATIONS 
       AND A TOTAL OF         25 INNER ITERATIONS.
    ------------------------------------------------

 NO OUTPUT CONTROL FOR STRESS PERIOD   16   TIME STEP    7

 SOLVING FOR HEAD 
                                                   Max.-Head-Change                        Max.-Flux-Residual
  Residual-Control   Outer-Iter.   Inner-Iter.     Column Row Layer    Max.-Head-Change    Column Row Layer    Max.-Flux-Residual            L2-New               L2-Old           Solver-Max-Delh
          0                 1          11            73   15     3       0.7082749011E+00      12   10    1      -0.2565520269E+05      0.2607534623E+06      0.8405161785E+01      0.7082749011E+00
          0                 2          10            73   15     3      -0.6292347364E-01      12   10    1       0.2511549777E+04      0.2609957425E+05      0.2607534623E+06     -0.6292347364E-01
          0                 3           5            53   48     2      -0.5109198253E-02      53   48    2      -0.1522164438E+03      0.1614762427E+03      0.2609957425E+05     -0.5109198253E-02

    ------------------------------------------------
       NWT REQUIRED            3 OUTER ITERATIONS 
       AND A TOTAL OF         26 INNER ITERATIONS.
    ------------------------------------------------

 NO OUTPUT CONTROL FOR STRESS PERIOD   16   TIME STEP    8

 SOLVING FOR HEAD 
                                                   Max.-Head-Change                        Max.-Flux-Residual
  Residual-Control   Outer-Iter.   Inner-Iter.     Column Row Layer    Max.-Head-Change    Column Row Layer    Max.-Flux-Residual            L2-New               L2-Old           Solver-Max-Delh
          0                 1          11            73   15     3       0.6989046612E+00      12   10    1      -0.2575270839E+05      0.2560576573E+06      0.1614762427E+03      0.6989046612E+00
          0                 2          10            64   27     2       0.7713750061E-01      12   10    1       0.2520665083E+04      0.2562231576E+05      0.2560576573E+06      0.7713750061E-01
          0                 3           4            64   27     2      -0.7013265312E-02      64   27    2      -0.1837435821E+03      0.1927956379E+03      0.2562231576E+05     -0.7013265312E-02

    ------------------------------------------------
       NWT REQUIRED            3 OUTER ITERATIONS 
       AND A TOTAL OF         25 INNER ITERATIONS.
    ------------------------------------------------

 NO OUTPUT CONTROL FOR STRESS PERIOD   16   TIME STEP    9

 INTERPOLATION FOR HEAD OBS# 6237, ID 1164-16-300  CHANGED BECAUSE AT LEAST ONE
 NEIGHBORING CELL REQUIRED FOR INTERPOLATION IS DRY OR INACTIVE (OBS2BAS7SE)

 SOLVING FOR HEAD 
                                                   Max.-Head-Change                        Max.-Flux-Residual
  Residual-Control   Outer-Iter.   Inner-Iter.     Column Row Layer    Max.-Head-Change    Column Row Layer    Max.-Flux-Residual            L2-New               L2-Old           Solver-Max-Delh
          0                 1          11            73   15     3       0.6893650904E+00      12   10    1      -0.2582780244E+05      0.2519423779E+06      0.1927956379E+03      0.6893650904E+00
          0                 2          10            73   15     3      -0.6120559575E-01      12   11    1       0.2531402176E+04      0.2517489928E+05      0.2519423779E+06     -0.6120559575E-01
          0                 3           4            73   15     1      -0.6815055113E-03      25   63    3      -0.4401795479E+01      0.9060215583E+01      0.2517489928E+05     -0.6815055113E-03

    ------------------------------------------------
       NWT REQUIRED            3 OUTER ITERATIONS 
       AND A TOTAL OF         25 INNER ITERATIONS.
    ------------------------------------------------

 NO OUTPUT CONTROL FOR STRESS PERIOD   16   TIME STEP   10

 INTERPOLATION FOR HEAD OBS# 3492, ID 1501-16-309  CHANGED BECAUSE AT LEAST ONE
 NEIGHBORING CELL REQUIRED FOR INTERPOLATION IS DRY OR INACTIVE (OBS2BAS7SE)

 SOLVING FOR HEAD 
                                                   Max.-Head-Change                        Max.-Flux-Residual
  Residual-Control   Outer-Iter.   Inner-Iter.     Column Row Layer    Max.-Head-Change    Column Row Layer    Max.-Flux-Residual            L2-New               L2-Old           Solver-Max-Delh
          0                 1          11            73   15     3       0.6798881860E+00      12   10    1      -0.2588348892E+05      0.2482754673E+06      0.9060215583E+01      0.6798881860E+00
          0                 2          10            73   15     3      -0.6040279578E-01      12   11    1       0.2543308025E+04      0.2482347029E+05      0.2482754673E+06     -0.6040279578E-01
          0                 3           4            73   15     1      -0.6725860769E-03      58   65    1       0.1109944063E+02      0.1357828165E+02      0.2482347029E+05     -0.6725860769E-03

    ------------------------------------------------
       NWT REQUIRED            3 OUTER ITERATIONS 
       AND A TOTAL OF         25 INNER ITERATIONS.
    ------------------------------------------------

 NO OUTPUT CONTROL FOR STRESS PERIOD   16   TIME STEP   11

 INTERPOLATION FOR HEAD OBS# 1563, ID 2931-16-361  CHANGED BECAUSE AT LEAST ONE
 NEIGHBORING CELL REQUIRED FOR INTERPOLATION IS DRY OR INACTIVE (OBS2BAS7SE)

 INTERPOLATION FOR HEAD OBS# 6232, ID 1921-16-362  CHANGED BECAUSE AT LEAST ONE
 NEIGHBORING CELL REQUIRED FOR INTERPOLATION IS DRY OR INACTIVE (OBS2BAS7SE)

 SOLVING FOR HEAD 
                                                   Max.-Head-Change                        Max.-Flux-Residual
  Residual-Control   Outer-Iter.   Inner-Iter.     Column Row Layer    Max.-Head-Change    Column Row Layer    Max.-Flux-Residual            L2-New               L2-Old           Solver-Max-Delh
          0                 1          11            73   15     3       0.6702564115E+00      12   11    1      -0.2597371617E+05      0.2448968899E+06      0.1357828165E+02      0.6702564115E+00
          0                 2          10            90   67     1      -0.2221965273E+00      90   67    1      -0.8975261013E+04      0.2611012726E+05      0.2448968899E+06     -0.2221965273E+00
          0                 3           4            63   26     2      -0.5185216095E-02      63   26    2      -0.1314636077E+03      0.1385269044E+03      0.2611012726E+05     -0.5185216095E-02

    ------------------------------------------------
       NWT REQUIRED            3 OUTER ITERATIONS 
       AND A TOTAL OF         25 INNER ITERATIONS.
    ------------------------------------------------

 OUTPUT CONTROL FOR STRESS PERIOD   16   TIME STEP   12
    SAVE HEAD FOR LAYERS:   1  2  3
    SAVE BUDGET
 UBDSV1 SAVING "         STORAGE" ON UNIT  39 AT TIME STEP 12, STRESS PERIOD  16
 UBDSV2 SAVING "   CONSTANT HEAD" ON UNIT  39 AT TIME STEP 12, STRESS PERIOD  16
 UBDSV1 SAVING "FLOW RIGHT FACE " ON UNIT  39 AT TIME STEP 12, STRESS PERIOD  16
 UBDSV1 SAVING "FLOW FRONT FACE " ON UNIT  39 AT TIME STEP 12, STRESS PERIOD  16
 UBDSV1 SAVING "FLOW LOWER FACE " ON UNIT  39 AT TIME STEP 12, STRESS PERIOD  16
 UBDSV3 SAVING "              ET" ON UNIT  39 AT TIME STEP 12, STRESS PERIOD  16
 UBDSV3 SAVING "        RECHARGE" ON UNIT  39 AT TIME STEP 12, STRESS PERIOD  16

 INTERPOLATION FOR HEAD OBS# 3399, ID 1428-17-11   CHANGED BECAUSE AT LEAST ONE
 NEIGHBORING CELL REQUIRED FOR INTERPOLATION IS DRY OR INACTIVE (OBS2BAS7SE)

 INTERPOLATION FOR HEAD OBS# 5424, ID 846-17-5     CHANGED BECAUSE AT LEAST ONE
 NEIGHBORING CELL REQUIRED FOR INTERPOLATION IS DRY OR INACTIVE (OBS2BAS7SE)

 HEAD WILL BE SAVED ON UNIT   31 AT END OF TIME STEP   12, STRESS PERIOD   16
1
  VOLUMETRIC BUDGET FOR ENTIRE MODEL AT END OF TIME STEP   12, STRESS PERIOD  16
  ------------------------------------------------------------------------------

     CUMULATIVE VOLUMES      L**3       RATES FOR THIS TIME STEP      L**3/T
     ------------------                 ------------------------

           IN:                                      IN:
           ---                                      ---
             STORAGE =  9379022848.0000               STORAGE =     1127598.3750
       CONSTANT HEAD =  5640080896.0000         CONSTANT HEAD =      759983.7500
               WELLS =   324179520.0000                 WELLS =           0.0000
                  ET =           0.0000                    ET =           0.0000
            RECHARGE = 78903631872.0000              RECHARGE =    24594996.0000

            TOTAL IN = 94246912000.0000              TOTAL IN =    26482578.0000

          OUT:                                     OUT:
          ----                                     ----
             STORAGE = 16023595008.0000               STORAGE =     8927636.0000
       CONSTANT HEAD = 29304408064.0000         CONSTANT HEAD =     6542416.5000
               WELLS =   279772480.0000                 WELLS =      152996.0000
                  ET = 48639647744.0000                    ET =    10859553.0000
            RECHARGE =           0.0000              RECHARGE =           0.0000

           TOTAL OUT = 94247419904.0000             TOTAL OUT =    26482600.0000

            IN - OUT =     -507904.0000              IN - OUT =         -22.0000

 PERCENT DISCREPANCY =          -0.00     PERCENT DISCREPANCY =          -0.00






         TIME SUMMARY AT END OF TIME STEP   12 IN STRESS PERIOD   16
                    SECONDS     MINUTES      HOURS       DAYS        YEARS
                    -----------------------------------------------------------
   TIME STEP LENGTH 2.62800E+06  43800.      730.00      30.417     8.32763E-02
 STRESS PERIOD TIME 3.15360E+07 5.25600E+05  8760.0      365.00     0.99932    
         TOTAL TIME 5.04921E+08 8.41536E+06 1.40256E+05  5844.0      16.000    
1
1
                            STRESS PERIOD NO.   17, LENGTH =   366.0000    
                            -----------------------------------------------

                              NUMBER OF TIME STEPS =    12

                               MULTIPLIER FOR DELT =     1.000

                            INITIAL TIME STEP SIZE =   30.50000    

 WELL NO.  LAYER   ROW   COL   STRESS RATE         
 --------------------------------------------------
      1      2     30     42     -0.1169E+05

      1 WELL 

 REUSING SURF FROM LAST STRESS PERIOD

 REUSING EVTR FROM LAST STRESS PERIOD

 REUSING EXDP FROM LAST STRESS PERIOD



                           RECHARGE
 READING ON UNIT   16 WITH FORMAT: (15F5.0)            


     63 TIME-VARIANT SPECIFIED-HEAD CELLS

 SOLVING FOR HEAD 
                                                   Max.-Head-Change                        Max.-Flux-Residual
  Residual-Control   Outer-Iter.   Inner-Iter.     Column Row Layer    Max.-Head-Change    Column Row Layer    Max.-Flux-Residual            L2-New               L2-Old           Solver-Max-Delh
          0                 1          11            65    2     2      -0.2949869744E+02      13   11    1      -0.1313042200E+06      0.9598935013E+06      0.1385269044E+03     -0.2949869744E+02
          0                 2          10            92   77     2       0.4358662406E+01      90   67    1      -0.1860745380E+05      0.9495342730E+05      0.9598935013E+06      0.4358662406E+01
          0                 3           5            90   67     1       0.2604821986E+00      90   67    2      -0.2308886895E+04      0.3257720874E+04      0.9495342730E+05      0.2604821986E+00
          0                 4           4            92   77     2       0.1048601881E-01      59   63    1      -0.3138992679E+02      0.3601734400E+02      0.3257720874E+04      0.1048601881E-01
          0                 5           3            92   77     2       0.5103280386E-03      59   63    1      -0.2821927190E+01      0.3257390201E+01      0.3601734400E+02      0.5103280386E-03

    ------------------------------------------------
       NWT REQUIRED            5 OUTER ITERATIONS 
       AND A TOTAL OF         33 INNER ITERATIONS.
    ------------------------------------------------

 NO OUTPUT CONTROL FOR STRESS PERIOD   17   TIME STEP    1

 INTERPOLATION FOR HEAD OBS# 3656, ID 1891-17-37   CHANGED BECAUSE AT LEAST ONE
 NEIGHBORING CELL REQUIRED FOR INTERPOLATION IS DRY OR INACTIVE (OBS2BAS7SE)

 INTERPOLATION FOR HEAD OBS# 3705, ID 1471-17-33   CHANGED BECAUSE AT LEAST ONE
 NEIGHBORING CELL REQUIRED FOR INTERPOLATION IS DRY OR INACTIVE (OBS2BAS7SE)

 INTERPOLATION FOR HEAD OBS# 3749, ID 1427-17-39   CHANGED BECAUSE AT LEAST ONE
 NEIGHBORING CELL REQUIRED FOR INTERPOLATION IS DRY OR INACTIVE (OBS2BAS7SE)

 INTERPOLATION FOR HEAD OBS# 3773, ID 1349-17-41   CHANGED BECAUSE AT LEAST ONE
 NEIGHBORING CELL REQUIRED FOR INTERPOLATION IS DRY OR INACTIVE (OBS2BAS7SE)

 INTERPOLATION FOR HEAD OBS# 5685, ID 1168-17-47   CHANGED BECAUSE AT LEAST ONE
 NEIGHBORING CELL REQUIRED FOR INTERPOLATION IS DRY OR INACTIVE (OBS2BAS7SE)

 SOLVING FOR HEAD 
                                                   Max.-Head-Change                        Max.-Flux-Residual
  Residual-Control   Outer-Iter.   Inner-Iter.     Column Row Layer    Max.-Head-Change    Column Row Layer    Max.-Flux-Residual            L2-New               L2-Old           Solver-Max-Delh
          0                 1          11            81   46     1      -0.1988916391E+01      81   46    1      -0.6394098927E+05      0.5221956887E+06      0.3257390201E+01     -0.1988916391E+01
          0                 2          10            81   46     1       0.1806573728E+00      81   46    1       0.6387656086E+04      0.5186194642E+05      0.5221956887E+06      0.1806573728E+00
          0                 3           4            72   14     3       0.9573304683E-03      61   57    2      -0.1645126133E+02      0.3197719517E+02      0.5186194642E+05      0.9573304683E-03

    ------------------------------------------------
       NWT REQUIRED            3 OUTER ITERATIONS 
       AND A TOTAL OF         25 INNER ITERATIONS.
    ------------------------------------------------

 NO OUTPUT CONTROL FOR STRESS PERIOD   17   TIME STEP    2

 INTERPOLATION FOR HEAD OBS# 6991, ID 683-17-78    CHANGED BECAUSE AT LEAST ONE
 NEIGHBORING CELL REQUIRED FOR INTERPOLATION IS DRY OR INACTIVE (OBS2BAS7SE)

 SOLVING FOR HEAD 
                                                   Max.-Head-Change                        Max.-Flux-Residual
  Residual-Control   Outer-Iter.   Inner-Iter.     Column Row Layer    Max.-Head-Change    Column Row Layer    Max.-Flux-Residual            L2-New               L2-Old           Solver-Max-Delh
          0                 1          11            81   46     1      -0.1928364376E+01      81   46    1      -0.6201416536E+05      0.3944739934E+06      0.3197719517E+02     -0.1928364376E+01
          0                 2           9            70   18     2       0.3125977436E+00      70   18    2       0.1092973548E+05      0.4109013564E+05      0.3944739934E+06      0.3125977436E+00
          0                 3           4            91   67     1       0.4872707674E-03      61   64    3       0.6541468374E+01      0.1257386617E+02      0.4109013564E+05      0.4872707674E-03

    ------------------------------------------------
       NWT REQUIRED            3 OUTER ITERATIONS 
       AND A TOTAL OF         24 INNER ITERATIONS.
    ------------------------------------------------

 NO OUTPUT CONTROL FOR STRESS PERIOD   17   TIME STEP    3

 SOLVING FOR HEAD 
                                                   Max.-Head-Change                        Max.-Flux-Residual
  Residual-Control   Outer-Iter.   Inner-Iter.     Column Row Layer    Max.-Head-Change    Column Row Layer    Max.-Flux-Residual            L2-New               L2-Old           Solver-Max-Delh
          0                 1          11            81   46     1      -0.1699736970E+01      81   46    1      -0.5947219955E+05      0.3355812970E+06      0.1257386617E+02     -0.1699736970E+01
          0                 2           9            81   46     1       0.1544204572E+00      81   46    1       0.5942429899E+04      0.3361458619E+05      0.3355812970E+06      0.1544204572E+00
          0                 3           4            25   78     2       0.4781253080E-03      58   78    2      -0.4131672258E+01      0.9487961956E+01      0.3361458619E+05      0.4781253080E-03

    ------------------------------------------------
       NWT REQUIRED            3 OUTER ITERATIONS 
       AND A TOTAL OF         24 INNER ITERATIONS.
    ------------------------------------------------

 NO OUTPUT CONTROL FOR STRESS PERIOD   17   TIME STEP    4

 SOLVING FOR HEAD 
                                                   Max.-Head-Change                        Max.-Flux-Residual
  Residual-Control   Outer-Iter.   Inner-Iter.     Column Row Layer    Max.-Head-Change    Column Row Layer    Max.-Flux-Residual            L2-New               L2-Old           Solver-Max-Delh
          0                 1          11            81   46     1      -0.1515210305E+01      81   46    1      -0.5299539245E+05      0.2990389262E+06      0.9487961956E+01     -0.1515210305E+01
          0                 2           9            81   46     1       0.1369337812E+00      81   46    1       0.5262737610E+04      0.2985611304E+05      0.2990389262E+06      0.1369337812E+00
          0                 3           4            25   78     2       0.4825332545E-03      59   85    2      -0.2056011118E+02      0.2882554833E+02      0.2985611304E+05      0.4825332545E-03

    ------------------------------------------------
       NWT REQUIRED            3 OUTER ITERATIONS 
       AND A TOTAL OF         24 INNER ITERATIONS.
    ------------------------------------------------

 NO OUTPUT CONTROL FOR STRESS PERIOD   17   TIME STEP    5

 SOLVING FOR HEAD 
                                                   Max.-Head-Change                        Max.-Flux-Residual
  Residual-Control   Outer-Iter.   Inner-Iter.     Column Row Layer    Max.-Head-Change    Column Row Layer    Max.-Flux-Residual            L2-New               L2-Old           Solver-Max-Delh
          0                 1          11            81   46     1      -0.1353043609E+01      81   46    1      -0.4726644727E+05      0.2734882024E+06      0.2882554833E+02     -0.1353043609E+01
          0                 2           9            81   46     1       0.1229609452E+00      81   46    1       0.4724619919E+04      0.2737512772E+05      0.2734882024E+06      0.1229609452E+00
          0                 3           5            58   64     1       0.9534115728E-03      58   64    1       0.7362905616E+02      0.7890074120E+02      0.2737512772E+05      0.9534115728E-03

    ------------------------------------------------
       NWT REQUIRED            3 OUTER ITERATIONS 
       AND A TOTAL OF         25 INNER ITERATIONS.
    ------------------------------------------------

 NO OUTPUT CONTROL FOR STRESS PERIOD   17   TIME STEP    6

 SOLVING FOR HEAD 
                                                   Max.-Head-Change                        Max.-Flux-Residual
  Residual-Control   Outer-Iter.   Inner-Iter.     Column Row Layer    Max.-Head-Change    Column Row Layer    Max.-Flux-Residual            L2-New               L2-Old           Solver-Max-Delh
          0                 1          11            81   46     1      -0.1207956208E+01      81   46    1      -0.4218395367E+05      0.2543436624E+06      0.7890074120E+02     -0.1207956208E+01
          0                 2           9            81   46     1       0.1097795225E+00      81   46    1       0.4216774885E+04      0.2544677158E+05      0.2543436624E+06      0.1097795225E+00
          0                 3           4            25   78     2       0.4929026347E-03      91   67    1       0.2175636306E+01      0.5771262284E+01      0.2544677158E+05      0.4929026347E-03

    ------------------------------------------------
       NWT REQUIRED            3 OUTER ITERATIONS 
       AND A TOTAL OF         24 INNER ITERATIONS.
    ------------------------------------------------

 NO OUTPUT CONTROL FOR STRESS PERIOD   17   TIME STEP    7

 SOLVING FOR HEAD 
                                                   Max.-Head-Change                        Max.-Flux-Residual
  Residual-Control   Outer-Iter.   Inner-Iter.     Column Row Layer    Max.-Head-Change    Column Row Layer    Max.-Flux-Residual            L2-New               L2-Old           Solver-Max-Delh
          0                 1          11            81   46     1      -0.1078793264E+01      81   46    1      -0.3766014765E+05      0.2393801704E+06      0.5771262284E+01     -0.1078793264E+01
          0                 2           9            81   46     1       0.9804420115E-01      81   46    1       0.3764716402E+04      0.2392280803E+05      0.2393801704E+06      0.9804420115E-01
          0                 3           4            24    3     1      -0.6417172864E-02      24    3    1      -0.2624651083E+03      0.2625494684E+03      0.2392280803E+05     -0.6417172864E-02

    ------------------------------------------------
       NWT REQUIRED            3 OUTER ITERATIONS 
       AND A TOTAL OF         24 INNER ITERATIONS.
    ------------------------------------------------

 NO OUTPUT CONTROL FOR STRESS PERIOD   17   TIME STEP    8

 SOLVING FOR HEAD 
                                                   Max.-Head-Change                        Max.-Flux-Residual
  Residual-Control   Outer-Iter.   Inner-Iter.     Column Row Layer    Max.-Head-Change    Column Row Layer    Max.-Flux-Residual            L2-New               L2-Old           Solver-Max-Delh
          0                 1          11            81   46     1      -0.9637888012E+00      81   46    1      -0.3363294093E+05      0.2273819977E+06      0.2625494684E+03     -0.9637888012E+00
          0                 2           9            24    3     1      -0.1811215258E+00      81   46    1       0.3362252624E+04      0.2277021831E+05      0.2273819977E+06     -0.1811215258E+00
          0                 3           4            24    3     1       0.1594558783E-01      24    3    1       0.1592555007E+03      0.1628339524E+03      0.2277021831E+05      0.1594558783E-01
          0                 4           2            25   78     2       0.1216964286E-03      24    3    1       0.4410262927E+00      0.4574686425E+00      0.1628339524E+03      0.1216964286E-03

    ------------------------------------------------
       NWT REQUIRED            4 OUTER ITERATIONS 
       AND A TOTAL OF         26 INNER ITERATIONS.
    ------------------------------------------------

 NO OUTPUT CONTROL FOR STRESS PERIOD   17   TIME STEP    9

 SOLVING FOR HEAD 
                                                   Max.-Head-Change                        Max.-Flux-Residual
  Residual-Control   Outer-Iter.   Inner-Iter.     Column Row Layer    Max.-Head-Change    Column Row Layer    Max.-Flux-Residual            L2-New               L2-Old           Solver-Max-Delh
          0                 1          11            81   46     1      -0.8613757879E+00      81   46    1      -0.3004725164E+05      0.2175711920E+06      0.4574686425E+00     -0.8613757879E+00
          0                 2           9            70   18     1      -0.1262682547E+00      81   46    1       0.3003888796E+04      0.2172605534E+05      0.2175711920E+06     -0.1262682547E+00
          0                 3           4            70   18     1       0.1078520282E-01      70   18    2      -0.6665403502E+02      0.9300386516E+02      0.2172605534E+05      0.1078520282E-01
          0                 4           2            25   78     2       0.1217359278E-03      70   18    2       0.2741089901E+00      0.4068325422E+00      0.9300386516E+02      0.1217359278E-03

    ------------------------------------------------
       NWT REQUIRED            4 OUTER ITERATIONS 
       AND A TOTAL OF         26 INNER ITERATIONS.
    ------------------------------------------------

 NO OUTPUT CONTROL FOR STRESS PERIOD   17   TIME STEP   10

 SOLVING FOR HEAD 
                                                   Max.-Head-Change                        Max.-Flux-Residual
  Residual-Control   Outer-Iter.   Inner-Iter.     Column Row Layer    Max.-Head-Change    Column Row Layer    Max.-Flux-Residual            L2-New               L2-Old           Solver-Max-Delh
          0                 1          11            70   18     1      -0.1681139315E+01      81   46    1      -0.2685419984E+05      0.2094023047E+06      0.4068325422E+00     -0.1681139315E+01
          0                 2           9            70   18     1       0.1435311577E+00      81   46    1       0.2684747562E+04      0.2091240341E+05      0.2094023047E+06      0.1435311577E+00
          0                 3           4            70   18     1       0.7909714328E-03      63  110    1       0.8262111101E+01      0.1348109487E+02      0.2091240341E+05      0.7909714328E-03

    ------------------------------------------------
       NWT REQUIRED            3 OUTER ITERATIONS 
       AND A TOTAL OF         24 INNER ITERATIONS.
    ------------------------------------------------

 NO OUTPUT CONTROL FOR STRESS PERIOD   17   TIME STEP   11

 SOLVING FOR HEAD 
                                                   Max.-Head-Change                        Max.-Flux-Residual
  Residual-Control   Outer-Iter.   Inner-Iter.     Column Row Layer    Max.-Head-Change    Column Row Layer    Max.-Flux-Residual            L2-New               L2-Old           Solver-Max-Delh
          0                 1          11            81   46     1      -0.6889139637E+00      12   10    1      -0.2466407193E+05      0.2026916967E+06      0.1348109487E+02     -0.6889139637E+00
          0                 2           9            81   46     1       0.6261655413E-01      12   10    1       0.2413057022E+04      0.2024161385E+05      0.2026916967E+06      0.6261655413E-01
          0                 3           4            25   78     2       0.5198010220E-03      63   86    1       0.2212656212E+02      0.2277814767E+02      0.2024161385E+05      0.5198010220E-03

    ------------------------------------------------
       NWT REQUIRED            3 OUTER ITERATIONS 
       AND A TOTAL OF         24 INNER ITERATIONS.
    ------------------------------------------------

 OUTPUT CONTROL FOR STRESS PERIOD   17   TIME STEP   12
    SAVE BUDGET
 UBDSV1 SAVING "         STORAGE" ON UNIT  39 AT TIME STEP 12, STRESS PERIOD  17
 UBDSV2 SAVING "   CONSTANT HEAD" ON UNIT  39 AT TIME STEP 12, STRESS PERIOD  17
 UBDSV1 SAVING "FLOW RIGHT FACE " ON UNIT  39 AT TIME STEP 12, STRESS PERIOD  17
 UBDSV1 SAVING "FLOW FRONT FACE " ON UNIT  39 AT TIME STEP 12, STRESS PERIOD  17
 UBDSV1 SAVING "FLOW LOWER FACE " ON UNIT  39 AT TIME STEP 12, STRESS PERIOD  17
 UBDSV3 SAVING "              ET" ON UNIT  39 AT TIME STEP 12, STRESS PERIOD  17
 UBDSV3 SAVING "        RECHARGE" ON UNIT  39 AT TIME STEP 12, STRESS PERIOD  17
1
  VOLUMETRIC BUDGET FOR ENTIRE MODEL AT END OF TIME STEP   12, STRESS PERIOD  17
  ------------------------------------------------------------------------------

     CUMULATIVE VOLUMES      L**3       RATES FOR THIS TIME STEP      L**3/T
     ------------------                 ------------------------

           IN:                                      IN:
           ---                                      ---
             STORAGE = 12195731456.0000               STORAGE =     6186728.0000
       CONSTANT HEAD =  5928215040.0000         CONSTANT HEAD =      789833.3750
               WELLS =   324179520.0000                 WELLS =           0.0000
                  ET =           0.0000                    ET =           0.0000
            RECHARGE = 82411216896.0000              RECHARGE =     9583517.0000

            TOTAL IN =100859346944.0000              TOTAL IN =    16560078.0000

          OUT:                                     OUT:
          ----                                     ----
             STORAGE = 16742134784.0000               STORAGE =     1013113.0000
       CONSTANT HEAD = 31682449408.0000         CONSTANT HEAD =     6510137.5000
               WELLS =   284049472.0000                 WELLS =       11686.0000
                  ET = 52151209984.0000                    ET =     9025165.0000
            RECHARGE =           0.0000              RECHARGE =           0.0000

           TOTAL OUT =100859838464.0000             TOTAL OUT =    16560102.0000

            IN - OUT =     -491520.0000              IN - OUT =         -24.0000

 PERCENT DISCREPANCY =          -0.00     PERCENT DISCREPANCY =          -0.00






         TIME SUMMARY AT END OF TIME STEP   12 IN STRESS PERIOD   17
                    SECONDS     MINUTES      HOURS       DAYS        YEARS
                    -----------------------------------------------------------
   TIME STEP LENGTH 2.63520E+06  43920.      732.00      30.500     8.35044E-02
 STRESS PERIOD TIME 3.16224E+07 5.27040E+05  8784.0      366.00      1.0021    
         TOTAL TIME 5.36544E+08 8.94240E+06 1.49040E+05  6210.0      17.002    
1
1
                            STRESS PERIOD NO.   18, LENGTH =   365.0000    
                            -----------------------------------------------

                              NUMBER OF TIME STEPS =    12

                               MULTIPLIER FOR DELT =     1.000

                            INITIAL TIME STEP SIZE =   30.41667    

 WELL NO.  LAYER   ROW   COL   STRESS RATE         
 --------------------------------------------------
      1      2     31     43     -0.1460E+05

      1 WELL 

 REUSING SURF FROM LAST STRESS PERIOD

 REUSING EVTR FROM LAST STRESS PERIOD

 REUSING EXDP FROM LAST STRESS PERIOD



                           RECHARGE
 READING ON UNIT   16 WITH FORMAT: (15F5.0)            


     63 TIME-VARIANT SPECIFIED-HEAD CELLS

 SOLVING FOR HEAD 
                                                   Max.-Head-Change                        Max.-Flux-Residual
  Residual-Control   Outer-Iter.   Inner-Iter.     Column Row Layer    Max.-Head-Change    Column Row Layer    Max.-Flux-Residual            L2-New               L2-Old           Solver-Max-Delh
          0                 1          11            92   77     2       0.1348803684E+02      67   47    1       0.1586990820E+06      0.6359890836E+06      0.2277814767E+02      0.1348803684E+02
          0                 2           9            92   77     2       0.3656829349E+01      67   47    1      -0.1616803630E+05      0.6390968388E+05      0.6359890836E+06      0.3656829349E+01
          0                 3           4            92   77     2      -0.4061662696E-01      69   47    1       0.3326071614E+03      0.4816042001E+03      0.6390968388E+05     -0.4061662696E-01
          0                 4           3            92   77     2      -0.3248035635E-02      69   47    1       0.2995122309E+02      0.3617273086E+02      0.4816042001E+03     -0.3248035635E-02

    ------------------------------------------------
       NWT REQUIRED            4 OUTER ITERATIONS 
       AND A TOTAL OF         27 INNER ITERATIONS.
    ------------------------------------------------

 NO OUTPUT CONTROL FOR STRESS PERIOD   18   TIME STEP    1

 SOLVING FOR HEAD 
                                                   Max.-Head-Change                        Max.-Flux-Residual
  Residual-Control   Outer-Iter.   Inner-Iter.     Column Row Layer    Max.-Head-Change    Column Row Layer    Max.-Flux-Residual            L2-New               L2-Old           Solver-Max-Delh
          0                 1          10            81   45     1       0.3109327221E+01      76   48    1       0.1190895944E+06      0.4723756290E+06      0.3617273086E+02      0.3109327221E+01
          0                 2           9            81   45     1      -0.2828863332E+00      70   47    1      -0.1092388688E+05      0.4605024776E+05      0.4723756290E+06     -0.2828863332E+00
          0                 3           4            91   52     3      -0.1697506823E-02      82   52    1       0.4932616697E+02      0.7064825917E+02      0.4605024776E+05     -0.1697506823E-02

    ------------------------------------------------
       NWT REQUIRED            3 OUTER ITERATIONS 
       AND A TOTAL OF         23 INNER ITERATIONS.
    ------------------------------------------------

 NO OUTPUT CONTROL FOR STRESS PERIOD   18   TIME STEP    2

 SOLVING FOR HEAD 
                                                   Max.-Head-Change                        Max.-Flux-Residual
  Residual-Control   Outer-Iter.   Inner-Iter.     Column Row Layer    Max.-Head-Change    Column Row Layer    Max.-Flux-Residual            L2-New               L2-Old           Solver-Max-Delh
          0                 1          10            81   45     1       0.2720515675E+01      69   47    1       0.9601552522E+05      0.3948434237E+06      0.7064825917E+02      0.2720515675E+01
          0                 2           9            81   45     1      -0.2475941091E+00      69   47    1      -0.9753605529E+04      0.3906847243E+05      0.3948434237E+06     -0.2475941091E+00
          0                 3           4            53   48     1       0.3011188918E-02      53   48    1       0.8065880588E+02      0.9004036952E+02      0.3906847243E+05      0.3011188918E-02

    ------------------------------------------------
       NWT REQUIRED            3 OUTER ITERATIONS 
       AND A TOTAL OF         23 INNER ITERATIONS.
    ------------------------------------------------

 NO OUTPUT CONTROL FOR STRESS PERIOD   18   TIME STEP    3

 SOLVING FOR HEAD 
                                                   Max.-Head-Change                        Max.-Flux-Residual
  Residual-Control   Outer-Iter.   Inner-Iter.     Column Row Layer    Max.-Head-Change    Column Row Layer    Max.-Flux-Residual            L2-New               L2-Old           Solver-Max-Delh
          0                 1          10            81   45     1       0.2379019751E+01      69   47    1       0.8613471668E+05      0.3453809248E+06      0.9004036952E+02      0.2379019751E+01
          0                 2           9            81   45     1      -0.2165072443E+00      69   47    1      -0.8734412747E+04      0.3462640062E+05      0.3453809248E+06     -0.2165072443E+00
          0                 3           4            68   47     2      -0.1403747399E-02      68   47    2      -0.1590622233E+02      0.2431393619E+02      0.3462640062E+05     -0.1403747399E-02

    ------------------------------------------------
       NWT REQUIRED            3 OUTER ITERATIONS 
       AND A TOTAL OF         23 INNER ITERATIONS.
    ------------------------------------------------

 NO OUTPUT CONTROL FOR STRESS PERIOD   18   TIME STEP    4

 SOLVING FOR HEAD 
                                                   Max.-Head-Change                        Max.-Flux-Residual
  Residual-Control   Outer-Iter.   Inner-Iter.     Column Row Layer    Max.-Head-Change    Column Row Layer    Max.-Flux-Residual            L2-New               L2-Old           Solver-Max-Delh
          0                 1          10            81   45     1       0.2081395620E+01      69   47    1       0.7707665837E+05      0.3096644542E+06      0.2431393619E+02      0.2081395620E+01
          0                 2           9            81   45     1      -0.1887506027E+00      69   47    1      -0.7803538639E+04      0.3074955507E+05      0.3096644542E+06     -0.1887506027E+00
          0                 3           4            66   44     2      -0.8040809314E-03      66   44    2      -0.1216507585E+02      0.1742266854E+02      0.3074955507E+05     -0.8040809314E-03

    ------------------------------------------------
       NWT REQUIRED            3 OUTER ITERATIONS 
       AND A TOTAL OF         23 INNER ITERATIONS.
    ------------------------------------------------

 NO OUTPUT CONTROL FOR STRESS PERIOD   18   TIME STEP    5

 SOLVING FOR HEAD 
                                                   Max.-Head-Change                        Max.-Flux-Residual
  Residual-Control   Outer-Iter.   Inner-Iter.     Column Row Layer    Max.-Head-Change    Column Row Layer    Max.-Flux-Residual            L2-New               L2-Old           Solver-Max-Delh
          0                 1          10            81   46     1       0.1879924194E+01      69   47    1       0.6890042616E+05      0.2829737334E+06      0.1742266854E+02      0.1879924194E+01
          0                 2           9            81   46     1      -0.1710239525E+00      69   47    1      -0.6965260081E+04      0.2809042782E+05      0.2829737334E+06     -0.1710239525E+00
          0                 3           4            65  109     2       0.5900557988E-02      65  109    2       0.2475529691E+03      0.2509620407E+03      0.2809042782E+05      0.5900557988E-02

    ------------------------------------------------
       NWT REQUIRED            3 OUTER ITERATIONS 
       AND A TOTAL OF         23 INNER ITERATIONS.
    ------------------------------------------------

 NO OUTPUT CONTROL FOR STRESS PERIOD   18   TIME STEP    6

 SOLVING FOR HEAD 
                                                   Max.-Head-Change                        Max.-Flux-Residual
  Residual-Control   Outer-Iter.   Inner-Iter.     Column Row Layer    Max.-Head-Change    Column Row Layer    Max.-Flux-Residual            L2-New               L2-Old           Solver-Max-Delh
          0                 1          10            81   46     1       0.1826007047E+01      69   47    1       0.6173627528E+05      0.2627366552E+06      0.2509620407E+03      0.1826007047E+01
          0                 2           9            81   46     1      -0.1661898324E+00      69   47    1      -0.6229603398E+04      0.2636618771E+05      0.2627366552E+06     -0.1661898324E+00
          0                 3           4            65  109     2      -0.1036882670E-01      65  109    2      -0.9942094530E+02      0.1141870342E+03      0.2636618771E+05     -0.1036882670E-01
          0                 4           2            25   78     2       0.1308094348E-03      25   61    3       0.1143021286E+00      0.1429793551E+00      0.1141870342E+03      0.1308094348E-03

    ------------------------------------------------
       NWT REQUIRED            4 OUTER ITERATIONS 
       AND A TOTAL OF         25 INNER ITERATIONS.
    ------------------------------------------------

 NO OUTPUT CONTROL FOR STRESS PERIOD   18   TIME STEP    7

 SOLVING FOR HEAD 
                                                   Max.-Head-Change                        Max.-Flux-Residual
  Residual-Control   Outer-Iter.   Inner-Iter.     Column Row Layer    Max.-Head-Change    Column Row Layer    Max.-Flux-Residual            L2-New               L2-Old           Solver-Max-Delh
          0                 1          10            81   46     1       0.1772167994E+01      81   46    1       0.5708037484E+05      0.2465093171E+06      0.1429793551E+00      0.1772167994E+01
          0                 2           9            81   46     1      -0.1612221892E+00      81   46    1      -0.5713143454E+04      0.2529091341E+05      0.2465093171E+06     -0.1612221892E+00
          0                 3           3            25   78     2       0.5347838645E-03      91   67    1      -0.2502647515E+01      0.4691345317E+01      0.2529091341E+05      0.5347838645E-03

    ------------------------------------------------
       NWT REQUIRED            3 OUTER ITERATIONS 
       AND A TOTAL OF         22 INNER ITERATIONS.
    ------------------------------------------------

 NO OUTPUT CONTROL FOR STRESS PERIOD   18   TIME STEP    8

 SOLVING FOR HEAD 
                                                   Max.-Head-Change                        Max.-Flux-Residual
  Residual-Control   Outer-Iter.   Inner-Iter.     Column Row Layer    Max.-Head-Change    Column Row Layer    Max.-Flux-Residual            L2-New               L2-Old           Solver-Max-Delh
          0                 1          10            81   46     1       0.1718863745E+01      81   46    1       0.5540030865E+05      0.2332343497E+06      0.4691345317E+01      0.1718863745E+01
          0                 2           9            81   46     1      -0.1559650877E+00      81   46    1      -0.5544938795E+04      0.2297760214E+05      0.2332343497E+06     -0.1559650877E+00
          0                 3           3            25   78     2       0.5399405572E-03      79   50    1      -0.3787931308E+01      0.7054435699E+01      0.2297760214E+05      0.5399405572E-03

    ------------------------------------------------
       NWT REQUIRED            3 OUTER ITERATIONS 
       AND A TOTAL OF         22 INNER ITERATIONS.
    ------------------------------------------------

 NO OUTPUT CONTROL FOR STRESS PERIOD   18   TIME STEP    9

 SOLVING FOR HEAD 
                                                   Max.-Head-Change                        Max.-Flux-Residual
  Residual-Control   Outer-Iter.   Inner-Iter.     Column Row Layer    Max.-Head-Change    Column Row Layer    Max.-Flux-Residual            L2-New               L2-Old           Solver-Max-Delh
          0                 1          10            81   46     1       0.1667824737E+01      81   46    1       0.5374852998E+05      0.2225758009E+06      0.7054435699E+01      0.1667824737E+01
          0                 2           9            81   46     1      -0.1517248875E+00      81   46    1      -0.5379460730E+04      0.2259380635E+05      0.2225758009E+06     -0.1517248875E+00
          0                 3           3            25   78     2       0.5389588263E-03      91   67    1      -0.2289641883E+01      0.4622096942E+01      0.2259380635E+05      0.5389588263E-03

    ------------------------------------------------
       NWT REQUIRED            3 OUTER ITERATIONS 
       AND A TOTAL OF         22 INNER ITERATIONS.
    ------------------------------------------------

 NO OUTPUT CONTROL FOR STRESS PERIOD   18   TIME STEP   10

 SOLVING FOR HEAD 
                                                   Max.-Head-Change                        Max.-Flux-Residual
  Residual-Control   Outer-Iter.   Inner-Iter.     Column Row Layer    Max.-Head-Change    Column Row Layer    Max.-Flux-Residual            L2-New               L2-Old           Solver-Max-Delh
          0                 1          10            81   46     1       0.1617727469E+01      81   46    1       0.5213962686E+05      0.2137638379E+06      0.4622096942E+01      0.1617727469E+01
          0                 2           9            81   46     1      -0.1472733342E+00      81   46    1      -0.5226294021E+04      0.2134200695E+05      0.2137638379E+06     -0.1472733342E+00
          0                 3           4            83   57     2      -0.1368609953E-02      83   57    2      -0.1186828847E+02      0.1292483678E+02      0.2134200695E+05     -0.1368609953E-02

    ------------------------------------------------
       NWT REQUIRED            3 OUTER ITERATIONS 
       AND A TOTAL OF         23 INNER ITERATIONS.
    ------------------------------------------------

 NO OUTPUT CONTROL FOR STRESS PERIOD   18   TIME STEP   11

 SOLVING FOR HEAD 
                                                   Max.-Head-Change                        Max.-Flux-Residual
  Residual-Control   Outer-Iter.   Inner-Iter.     Column Row Layer    Max.-Head-Change    Column Row Layer    Max.-Flux-Residual            L2-New               L2-Old           Solver-Max-Delh
          0                 1          10            81   46     1       0.1567717918E+01      81   46    1       0.5057033163E+05      0.2064207863E+06      0.1292483678E+02      0.1567717918E+01
          0                 2           9            81   46     1      -0.1426425482E+00      81   46    1      -0.5062435094E+04      0.2064908356E+05      0.2064207863E+06     -0.1426425482E+00
          0                 3           3            25   78     2       0.5346557664E-03      91   67    1      -0.2110698171E+01      0.4370742278E+01      0.2064908356E+05      0.5346557664E-03

    ------------------------------------------------
       NWT REQUIRED            3 OUTER ITERATIONS 
       AND A TOTAL OF         22 INNER ITERATIONS.
    ------------------------------------------------

 OUTPUT CONTROL FOR STRESS PERIOD   18   TIME STEP   12
    SAVE BUDGET
 UBDSV1 SAVING "         STORAGE" ON UNIT  39 AT TIME STEP 12, STRESS PERIOD  18
 UBDSV2 SAVING "   CONSTANT HEAD" ON UNIT  39 AT TIME STEP 12, STRESS PERIOD  18
 UBDSV1 SAVING "FLOW RIGHT FACE " ON UNIT  39 AT TIME STEP 12, STRESS PERIOD  18
 UBDSV1 SAVING "FLOW FRONT FACE " ON UNIT  39 AT TIME STEP 12, STRESS PERIOD  18
 UBDSV1 SAVING "FLOW LOWER FACE " ON UNIT  39 AT TIME STEP 12, STRESS PERIOD  18
 UBDSV3 SAVING "              ET" ON UNIT  39 AT TIME STEP 12, STRESS PERIOD  18
 UBDSV3 SAVING "        RECHARGE" ON UNIT  39 AT TIME STEP 12, STRESS PERIOD  18
1
  VOLUMETRIC BUDGET FOR ENTIRE MODEL AT END OF TIME STEP   12, STRESS PERIOD  18
  ------------------------------------------------------------------------------

     CUMULATIVE VOLUMES      L**3       RATES FOR THIS TIME STEP      L**3/T
     ------------------                 ------------------------

           IN:                                      IN:
           ---                                      ---
             STORAGE = 13548719104.0000               STORAGE =     3306443.5000
       CONSTANT HEAD =  6220761600.0000         CONSTANT HEAD =      803661.8750
               WELLS =   324179520.0000                 WELLS =           0.0000
                  ET =           0.0000                    ET =           0.0000
            RECHARGE = 87877017600.0000              RECHARGE =    14974722.0000

            TOTAL IN =107970674688.0000              TOTAL IN =    19084828.0000

          OUT:                                     OUT:
          ----                                     ----
             STORAGE = 17876082688.0000               STORAGE =     2385096.2500
       CONSTANT HEAD = 34071283712.0000         CONSTANT HEAD =     6580442.5000
               WELLS =   289380160.0000                 WELLS =       14605.0000
                  ET = 55734423552.0000                    ET =    10104711.0000
            RECHARGE =           0.0000              RECHARGE =           0.0000

           TOTAL OUT =107971166208.0000             TOTAL OUT =    19084856.0000

            IN - OUT =     -491520.0000              IN - OUT =         -28.0000

 PERCENT DISCREPANCY =          -0.00     PERCENT DISCREPANCY =          -0.00






         TIME SUMMARY AT END OF TIME STEP   12 IN STRESS PERIOD   18
                    SECONDS     MINUTES      HOURS       DAYS        YEARS
                    -----------------------------------------------------------
   TIME STEP LENGTH 2.62800E+06  43800.      730.00      30.417     8.32763E-02
 STRESS PERIOD TIME 3.15360E+07 5.25600E+05  8760.0      365.00     0.99932    
         TOTAL TIME 5.68080E+08 9.46799E+06 1.57800E+05  6575.0      18.001    
1
1
                            STRESS PERIOD NO.   19, LENGTH =   365.0000    
                            -----------------------------------------------

                              NUMBER OF TIME STEPS =    12

                               MULTIPLIER FOR DELT =     1.000

                            INITIAL TIME STEP SIZE =   30.41667    

 WELL NO.  LAYER   ROW   COL   STRESS RATE         
 --------------------------------------------------
      1      2     31     43     -0.3367E+05

      1 WELL 

 REUSING SURF FROM LAST STRESS PERIOD

 REUSING EVTR FROM LAST STRESS PERIOD

 REUSING EXDP FROM LAST STRESS PERIOD



                           RECHARGE
 READING ON UNIT   16 WITH FORMAT: (15F5.0)            


     63 TIME-VARIANT SPECIFIED-HEAD CELLS

 SOLVING FOR HEAD 
                                                   Max.-Head-Change                        Max.-Flux-Residual
  Residual-Control   Outer-Iter.   Inner-Iter.     Column Row Layer    Max.-Head-Change    Column Row Layer    Max.-Flux-Residual            L2-New               L2-Old           Solver-Max-Delh
          0                 1          11            67   47     1      -0.1416693766E+01      67   47    1      -0.7433339400E+05      0.4138857150E+06      0.4370742278E+01     -0.1416693766E+01
          0                 2           9            69   45     2       0.5625306587E+00      67   47    1       0.7683981547E+04      0.4182540643E+05      0.4138857150E+06      0.5625306587E+00
          0                 3           4            69   45     2      -0.5110614461E-01      69   45    2      -0.1172854466E+03      0.1645737791E+03      0.4182540643E+05     -0.5110614461E-01
          0                 4           3            25   78     2       0.1287408161E-03      59   68    1       0.8634441316E+01      0.8650440850E+01      0.1645737791E+03      0.1287408161E-03

    ------------------------------------------------
       NWT REQUIRED            4 OUTER ITERATIONS 
       AND A TOTAL OF         27 INNER ITERATIONS.
    ------------------------------------------------

 NO OUTPUT CONTROL FOR STRESS PERIOD   19   TIME STEP    1

 SOLVING FOR HEAD 
                                                   Max.-Head-Change                        Max.-Flux-Residual
  Residual-Control   Outer-Iter.   Inner-Iter.     Column Row Layer    Max.-Head-Change    Column Row Layer    Max.-Flux-Residual            L2-New               L2-Old           Solver-Max-Delh
          0                 1          11            69   45     2       0.1665629771E+01      67   47    1      -0.5020639724E+05      0.2653267526E+06      0.8650440850E+01      0.1665629771E+01
          0                 2           9            69   45     2      -0.1440816068E+00      67   47    1       0.6650006810E+04      0.2686366453E+05      0.2653267526E+06     -0.1440816068E+00
          0                 3           5            64   28     1       0.4313897690E-02      62   89    1      -0.9977709115E+02      0.1579077027E+03      0.2686366453E+05      0.4313897690E-02

    ------------------------------------------------
       NWT REQUIRED            3 OUTER ITERATIONS 
       AND A TOTAL OF         25 INNER ITERATIONS.
    ------------------------------------------------

 NO OUTPUT CONTROL FOR STRESS PERIOD   19   TIME STEP    2

 SOLVING FOR HEAD 
                                                   Max.-Head-Change                        Max.-Flux-Residual
  Residual-Control   Outer-Iter.   Inner-Iter.     Column Row Layer    Max.-Head-Change    Column Row Layer    Max.-Flux-Residual            L2-New               L2-Old           Solver-Max-Delh
          0                 1          10            81   46     1       0.1105493739E+01      74   48    1      -0.3875777481E+05      0.2131515958E+06      0.1579077027E+03      0.1105493739E+01
          0                 2           9            81   46     1      -0.1005595001E+00      74   48    1       0.3867751155E+04      0.2132021005E+05      0.2131515958E+06     -0.1005595001E+00
          0                 3           3            25   78     2       0.5241058345E-03      92   67    1      -0.1311873097E+01      0.3482663528E+01      0.2132021005E+05      0.5241058345E-03

    ------------------------------------------------
       NWT REQUIRED            3 OUTER ITERATIONS 
       AND A TOTAL OF         22 INNER ITERATIONS.
    ------------------------------------------------

 NO OUTPUT CONTROL FOR STRESS PERIOD   19   TIME STEP    3

 SOLVING FOR HEAD 
                                                   Max.-Head-Change                        Max.-Flux-Residual
  Residual-Control   Outer-Iter.   Inner-Iter.     Column Row Layer    Max.-Head-Change    Column Row Layer    Max.-Flux-Residual            L2-New               L2-Old           Solver-Max-Delh
          0                 1          10            81   46     1       0.1070709691E+01      81   46    1       0.3456170790E+05      0.1867451602E+06      0.3482663528E+01      0.1070709691E+01
          0                 2           9            81   46     1      -0.9739332258E-01      81   46    1      -0.3458681460E+04      0.1866001653E+05      0.1867451602E+06     -0.9739332258E-01
          0                 3           3            25   78     2       0.5195931857E-03      92   67    1      -0.1292047087E+01      0.3410858641E+01      0.1866001653E+05      0.5195931857E-03

    ------------------------------------------------
       NWT REQUIRED            3 OUTER ITERATIONS 
       AND A TOTAL OF         22 INNER ITERATIONS.
    ------------------------------------------------

 NO OUTPUT CONTROL FOR STRESS PERIOD   19   TIME STEP    4

 SOLVING FOR HEAD 
                                                   Max.-Head-Change                        Max.-Flux-Residual
  Residual-Control   Outer-Iter.   Inner-Iter.     Column Row Layer    Max.-Head-Change    Column Row Layer    Max.-Flux-Residual            L2-New               L2-Old           Solver-Max-Delh
          0                 1          10            81   46     1       0.1037062718E+01      81   46    1       0.3347452607E+05      0.1706969156E+06      0.3410858641E+01      0.1037062718E+01
          0                 2           9            81   46     1      -0.9433076213E-01      81   46    1      -0.3349799680E+04      0.1708804519E+05      0.1706969156E+06     -0.9433076213E-01
          0                 3           3            25   78     2       0.5146486389E-03      61   62    3       0.2029234311E+01      0.4108497468E+01      0.1708804519E+05      0.5146486389E-03

    ------------------------------------------------
       NWT REQUIRED            3 OUTER ITERATIONS 
       AND A TOTAL OF         22 INNER ITERATIONS.
    ------------------------------------------------

 NO OUTPUT CONTROL FOR STRESS PERIOD   19   TIME STEP    5

 SOLVING FOR HEAD 
                                                   Max.-Head-Change                        Max.-Flux-Residual
  Residual-Control   Outer-Iter.   Inner-Iter.     Column Row Layer    Max.-Head-Change    Column Row Layer    Max.-Flux-Residual            L2-New               L2-Old           Solver-Max-Delh
          0                 1          10            81   46     1       0.1004531517E+01      81   46    1       0.3242286015E+05      0.1599734439E+06      0.4108497468E+01      0.1004531517E+01
          0                 2           9            81   46     1      -0.9136986974E-01      81   46    1      -0.3244479648E+04      0.1597967836E+05      0.1599734439E+06     -0.9136986974E-01
          0                 3           3            25   78     2       0.5091517757E-03      92   67    1      -0.1252358500E+01      0.3578772382E+01      0.1597967836E+05      0.5091517757E-03

    ------------------------------------------------
       NWT REQUIRED            3 OUTER ITERATIONS 
       AND A TOTAL OF         22 INNER ITERATIONS.
    ------------------------------------------------

 NO OUTPUT CONTROL FOR STRESS PERIOD   19   TIME STEP    6

 SOLVING FOR HEAD 
                                                   Max.-Head-Change                        Max.-Flux-Residual
  Residual-Control   Outer-Iter.   Inner-Iter.     Column Row Layer    Max.-Head-Change    Column Row Layer    Max.-Flux-Residual            L2-New               L2-Old           Solver-Max-Delh
          0                 1          10            81   46     1       0.9730925378E+00      81   46    1       0.3140605698E+05      0.1524135243E+06      0.3578772382E+01      0.9730925378E+00
          0                 2           9            81   46     1      -0.8853808151E-01      81   46    1      -0.3142655536E+04      0.1521043428E+05      0.1524135243E+06     -0.8853808151E-01
          0                 3           3            25   78     2       0.5033872534E-03      92   67    1      -0.1233023167E+01      0.3297994919E+01      0.1521043428E+05      0.5033872534E-03

    ------------------------------------------------
       NWT REQUIRED            3 OUTER ITERATIONS 
       AND A TOTAL OF         22 INNER ITERATIONS.
    ------------------------------------------------

 NO OUTPUT CONTROL FOR STRESS PERIOD   19   TIME STEP    7

 SOLVING FOR HEAD 
                                                   Max.-Head-Change                        Max.-Flux-Residual
  Residual-Control   Outer-Iter.   Inner-Iter.     Column Row Layer    Max.-Head-Change    Column Row Layer    Max.-Flux-Residual            L2-New               L2-Old           Solver-Max-Delh
          0                 1          10            81   46     1       0.9426060575E+00      81   46    1       0.3042236025E+05      0.1468932991E+06      0.3297994919E+01      0.9426060575E+00
          0                 2           9            81   46     1      -0.8573390174E-01      81   46    1      -0.3044150652E+04      0.1466947660E+05      0.1468932991E+06     -0.8573390174E-01
          0                 3           3            25   78     2       0.4971450355E-03      92   67    1      -0.1213981930E+01      0.3303512409E+01      0.1466947660E+05      0.4971450355E-03

    ------------------------------------------------
       NWT REQUIRED            3 OUTER ITERATIONS 
       AND A TOTAL OF         22 INNER ITERATIONS.
    ------------------------------------------------

 NO OUTPUT CONTROL FOR STRESS PERIOD   19   TIME STEP    8

 SOLVING FOR HEAD 
                                                   Max.-Head-Change                        Max.-Flux-Residual
  Residual-Control   Outer-Iter.   Inner-Iter.     Column Row Layer    Max.-Head-Change    Column Row Layer    Max.-Flux-Residual            L2-New               L2-Old           Solver-Max-Delh
          0                 1          10            81   46     1       0.9131985919E+00      81   46    1       0.2947045747E+05      0.1427245164E+06      0.3303512409E+01      0.9131985919E+00
          0                 2           9            81   46     1      -0.8305761191E-01      81   46    1      -0.2948834021E+04      0.1428370459E+05      0.1427245164E+06     -0.8305761191E-01
          0                 3           3            25   78     2       0.4907259471E-03      92   67    1      -0.1195249319E+01      0.3254619142E+01      0.1428370459E+05      0.4907259471E-03

    ------------------------------------------------
       NWT REQUIRED            3 OUTER ITERATIONS 
       AND A TOTAL OF         22 INNER ITERATIONS.
    ------------------------------------------------

 NO OUTPUT CONTROL FOR STRESS PERIOD   19   TIME STEP    9

 SOLVING FOR HEAD 
                                                   Max.-Head-Change                        Max.-Flux-Residual
  Residual-Control   Outer-Iter.   Inner-Iter.     Column Row Layer    Max.-Head-Change    Column Row Layer    Max.-Flux-Residual            L2-New               L2-Old           Solver-Max-Delh
          0                 1          10            81   46     1       0.8848106403E+00      81   46    1       0.2855124605E+05      0.1394789642E+06      0.3254619142E+01      0.8848106403E+00
          0                 2           9            12    5     2       0.8546474538E-01      12    5    2       0.5378594573E+04      0.1492720071E+05      0.1394789642E+06      0.8546474538E-01
          0                 3           3            25   78     2       0.4839024786E-03      92   67    1      -0.1176841658E+01      0.3470021364E+01      0.1492720071E+05      0.4839024786E-03

    ------------------------------------------------
       NWT REQUIRED            3 OUTER ITERATIONS 
       AND A TOTAL OF         22 INNER ITERATIONS.
    ------------------------------------------------

 NO OUTPUT CONTROL FOR STRESS PERIOD   19   TIME STEP   10

 SOLVING FOR HEAD 
                                                   Max.-Head-Change                        Max.-Flux-Residual
  Residual-Control   Outer-Iter.   Inner-Iter.     Column Row Layer    Max.-Head-Change    Column Row Layer    Max.-Flux-Residual            L2-New               L2-Old           Solver-Max-Delh
          0                 1          10            81   46     1       0.8574139031E+00      81   46    1       0.2766389451E+05      0.1368615200E+06      0.3470021364E+01      0.8574139031E+00
          0                 2           9            81   46     1      -0.7798105784E-01      81   46    1      -0.2767949173E+04      0.1367412139E+05      0.1368615200E+06     -0.7798105784E-01
          0                 3           3            25   78     2       0.4768432120E-03      68   48    1       0.1796647720E+01      0.3704679030E+01      0.1367412139E+05      0.4768432120E-03

    ------------------------------------------------
       NWT REQUIRED            3 OUTER ITERATIONS 
       AND A TOTAL OF         22 INNER ITERATIONS.
    ------------------------------------------------

 NO OUTPUT CONTROL FOR STRESS PERIOD   19   TIME STEP   11

 SOLVING FOR HEAD 
                                                   Max.-Head-Change                        Max.-Flux-Residual
  Residual-Control   Outer-Iter.   Inner-Iter.     Column Row Layer    Max.-Head-Change    Column Row Layer    Max.-Flux-Residual            L2-New               L2-Old           Solver-Max-Delh
          0                 1          10            81   46     1       0.8309798083E+00      81   46    1       0.2680751592E+05      0.1349283255E+06      0.3704679030E+01      0.8309798083E+00
          0                 2           9            81   46     1      -0.7557559673E-01      81   46    1      -0.2682208181E+04      0.1346530449E+05      0.1349283255E+06     -0.7557559673E-01
          0                 3           6            12    5     1      -0.2627007896E-01      12    5    1      -0.1792692440E+04      0.1792777840E+04      0.1346530449E+05     -0.2627007896E-01
          0                 4           4            12    5     1      -0.2365706323E-02      12    5    1      -0.1614039185E+03      0.1614044492E+03      0.1792777840E+04     -0.2365706323E-02

    ------------------------------------------------
       NWT REQUIRED            4 OUTER ITERATIONS 
       AND A TOTAL OF         29 INNER ITERATIONS.
    ------------------------------------------------

 OUTPUT CONTROL FOR STRESS PERIOD   19   TIME STEP   12
    SAVE BUDGET
 UBDSV1 SAVING "         STORAGE" ON UNIT  39 AT TIME STEP 12, STRESS PERIOD  19
 UBDSV2 SAVING "   CONSTANT HEAD" ON UNIT  39 AT TIME STEP 12, STRESS PERIOD  19
 UBDSV1 SAVING "FLOW RIGHT FACE " ON UNIT  39 AT TIME STEP 12, STRESS PERIOD  19
 UBDSV1 SAVING "FLOW FRONT FACE " ON UNIT  39 AT TIME STEP 12, STRESS PERIOD  19
 UBDSV1 SAVING "FLOW LOWER FACE " ON UNIT  39 AT TIME STEP 12, STRESS PERIOD  19
 UBDSV3 SAVING "              ET" ON UNIT  39 AT TIME STEP 12, STRESS PERIOD  19
 UBDSV3 SAVING "        RECHARGE" ON UNIT  39 AT TIME STEP 12, STRESS PERIOD  19
1
  VOLUMETRIC BUDGET FOR ENTIRE MODEL AT END OF TIME STEP   12, STRESS PERIOD  19
  ------------------------------------------------------------------------------

     CUMULATIVE VOLUMES      L**3       RATES FOR THIS TIME STEP      L**3/T
     ------------------                 ------------------------

           IN:                                      IN:
           ---                                      ---
             STORAGE = 14231661568.0000               STORAGE =     1585850.8750
       CONSTANT HEAD =  6504365568.0000         CONSTANT HEAD =      765841.4375
               WELLS =   324179520.0000                 WELLS =           0.0000
                  ET =           0.0000                    ET =           0.0000
            RECHARGE = 94403420160.0000              RECHARGE =    17880542.0000

            TOTAL IN =115463626752.0000              TOTAL IN =    20232234.0000

          OUT:                                     OUT:
          ----                                     ----
             STORAGE = 19153956864.0000               STORAGE =     3015853.2500
       CONSTANT HEAD = 36501614592.0000         CONSTANT HEAD =     6708377.0000
               WELLS =   301668160.0000                 WELLS =       33666.0000
                  ET = 59506884608.0000                    ET =    10474378.0000
            RECHARGE =           0.0000              RECHARGE =           0.0000

           TOTAL OUT =115464126464.0000             TOTAL OUT =    20232274.0000

            IN - OUT =     -499712.0000              IN - OUT =         -40.0000

 PERCENT DISCREPANCY =          -0.00     PERCENT DISCREPANCY =          -0.00






         TIME SUMMARY AT END OF TIME STEP   12 IN STRESS PERIOD   19
                    SECONDS     MINUTES      HOURS       DAYS        YEARS
                    -----------------------------------------------------------
   TIME STEP LENGTH 2.62800E+06  43800.      730.00      30.417     8.32763E-02
 STRESS PERIOD TIME 3.15360E+07 5.25600E+05  8760.0      365.00     0.99932    
         TOTAL TIME 5.99615E+08 9.99359E+06 1.66560E+05  6940.0      19.001    
1
1
                            STRESS PERIOD NO.   20, LENGTH =   365.0000    
                            -----------------------------------------------

                              NUMBER OF TIME STEPS =    12

                               MULTIPLIER FOR DELT =     1.000

                            INITIAL TIME STEP SIZE =   30.41667    

 WELL NO.  LAYER   ROW   COL   STRESS RATE         
 --------------------------------------------------
      1      2     31     43     -0.1651E+05

      1 WELL 

 REUSING SURF FROM LAST STRESS PERIOD

 REUSING EVTR FROM LAST STRESS PERIOD

 REUSING EXDP FROM LAST STRESS PERIOD



                           RECHARGE
 READING ON UNIT   16 WITH FORMAT: (15F5.0)            


     63 TIME-VARIANT SPECIFIED-HEAD CELLS

 SOLVING FOR HEAD 
                                                   Max.-Head-Change                        Max.-Flux-Residual
  Residual-Control   Outer-Iter.   Inner-Iter.     Column Row Layer    Max.-Head-Change    Column Row Layer    Max.-Flux-Residual            L2-New               L2-Old           Solver-Max-Delh
          0                 1          11            65    2     2       0.1540210640E+03      70   19    1       0.2463187207E+06      0.8265065840E+06      0.1614044492E+03      0.1540210640E+03
          1                 1           0            65    2     2       0.1386189539E+03      65    7    2      -0.2250955241E+07      0.3538836442E+07      0.8265065840E+06      0.1540210640E+03
          2                 1           0            65    2     2       0.1247570552E+03      65    7    2      -0.1933600224E+07      0.2885398663E+07      0.3538836442E+07      0.1540210640E+03
          3                 1           0            65    2     2       0.1122813467E+03      65    7    2      -0.1651321080E+07      0.2370196032E+07      0.2885398663E+07      0.1540210640E+03
          4                 1           0            65    2     2       0.1010532094E+03      65    7    2      -0.1399975553E+07      0.1962153012E+07      0.2370196032E+07      0.1540210640E+03
          0                 2          10            65    2     2       0.4894282647E+02      65    7    2      -0.1175956197E+07      0.1627369597E+07      0.1962153012E+07      0.4894282647E+02
          0                 3           9            65    2     2      -0.2531927799E+02      65    2    2      -0.6982156560E+06      0.8515699356E+06      0.1627369597E+07     -0.2531927799E+02
          0                 4           4            66    2     2       0.4532745859E+01      66    4    2      -0.2645137099E+05      0.2784411334E+05      0.8515699356E+06      0.4532745859E+01
          0                 5           3            66    2     2       0.6797671940E+00      66    4    2      -0.4527774979E+04      0.4560049911E+04      0.2784411334E+05      0.6797671940E+00
          0                 6           3            66    2     2       0.1001314939E+00      66    4    2      -0.7739367649E+03      0.7773191412E+03      0.4560049911E+04      0.1001314939E+00
                                                   Max.-Head-Change                        Max.-Flux-Residual
  Residual-Control   Outer-Iter.   Inner-Iter.     Column Row Layer    Max.-Head-Change    Column Row Layer    Max.-Flux-Residual            L2-New               L2-Old           Solver-Max-Delh
          0                 7           2            66    2     2       0.1473975167E-01      66    4    2      -0.1321926379E+03      0.1325759041E+03      0.7773191412E+03      0.1473975167E-01
          0                 8           2            66    2     2       0.2168344209E-02      66    4    2      -0.2256542550E+02      0.2261076755E+02      0.1325759041E+03      0.2168344209E-02

    ------------------------------------------------
       NWT REQUIRED            8 OUTER ITERATIONS 
       AND A TOTAL OF         44 INNER ITERATIONS.
    ------------------------------------------------

 NO OUTPUT CONTROL FOR STRESS PERIOD   20   TIME STEP    1

 SOLVING FOR HEAD 
                                                   Max.-Head-Change                        Max.-Flux-Residual
  Residual-Control   Outer-Iter.   Inner-Iter.     Column Row Layer    Max.-Head-Change    Column Row Layer    Max.-Flux-Residual            L2-New               L2-Old           Solver-Max-Delh
          0                 1          11            70   19     2       0.7374508400E+01      70   19    2       0.2198779400E+06      0.6912242737E+06      0.2261076755E+02      0.7374508400E+01
          0                 2           9            72   15     1      -0.2175073830E+01      72   15    1      -0.6949685358E+05      0.9969834661E+05      0.6912242737E+06     -0.2175073830E+01
          0                 3           5            63   26     2      -0.5656224428E-01      63   26    2      -0.1377558140E+04      0.1493267782E+04      0.9969834661E+05     -0.5656224428E-01
          0                 4           3            73   13     3       0.1026709318E-02      73   13    3       0.3065019351E+01      0.4681133659E+01      0.1493267782E+04      0.1026709318E-02

    ------------------------------------------------
       NWT REQUIRED            4 OUTER ITERATIONS 
       AND A TOTAL OF         28 INNER ITERATIONS.
    ------------------------------------------------

 NO OUTPUT CONTROL FOR STRESS PERIOD   20   TIME STEP    2

 SOLVING FOR HEAD 
                                                   Max.-Head-Change                        Max.-Flux-Residual
  Residual-Control   Outer-Iter.   Inner-Iter.     Column Row Layer    Max.-Head-Change    Column Row Layer    Max.-Flux-Residual            L2-New               L2-Old           Solver-Max-Delh
          0                 1          11            70   19     2       0.6719056822E+01      70   19    2       0.1998616423E+06      0.6314002690E+06      0.4681133659E+01      0.6719056822E+01
          0                 2           9            64   28     2       0.1079102149E+01      64   28    2       0.2550879109E+05      0.7175417063E+05      0.6314002690E+06      0.1079102149E+01
          0                 3           5            64   28     2      -0.9810117568E-01      64   28    2      -0.2535101535E+04      0.2620680887E+04      0.7175417063E+05     -0.9810117568E-01
          0                 4           2            71   20     2      -0.2741362672E-03      71   20    2      -0.1075782720E+01      0.1157476670E+01      0.2620680887E+04     -0.2741362672E-03

    ------------------------------------------------
       NWT REQUIRED            4 OUTER ITERATIONS 
       AND A TOTAL OF         27 INNER ITERATIONS.
    ------------------------------------------------

 NO OUTPUT CONTROL FOR STRESS PERIOD   20   TIME STEP    3

 SOLVING FOR HEAD 
                                                   Max.-Head-Change                        Max.-Flux-Residual
  Residual-Control   Outer-Iter.   Inner-Iter.     Column Row Layer    Max.-Head-Change    Column Row Layer    Max.-Flux-Residual            L2-New               L2-Old           Solver-Max-Delh
          0                 1          10            73   14     2       0.5633935411E+01      70   19    2       0.1823870157E+06      0.5852832304E+06      0.1157476670E+01      0.5633935411E+01
          0                 2           9            70   18     2       0.6749489494E+01      70   18    2       0.5303152988E+05      0.8054348595E+05      0.5852832304E+06      0.6749489494E+01
          0                 3           5            70   18     2      -0.6605360488E+00      70   18    2      -0.5868157401E+04      0.6095183360E+04      0.8054348595E+05     -0.6605360488E+00
          0                 4           2            70   19     2       0.6717391381E-03      70   19    2       0.3160528774E+02      0.3176775153E+02      0.6095183360E+04      0.6717391381E-03

    ------------------------------------------------
       NWT REQUIRED            4 OUTER ITERATIONS 
       AND A TOTAL OF         26 INNER ITERATIONS.
    ------------------------------------------------

 NO OUTPUT CONTROL FOR STRESS PERIOD   20   TIME STEP    4

 SOLVING FOR HEAD 
                                                   Max.-Head-Change                        Max.-Flux-Residual
  Residual-Control   Outer-Iter.   Inner-Iter.     Column Row Layer    Max.-Head-Change    Column Row Layer    Max.-Flux-Residual            L2-New               L2-Old           Solver-Max-Delh
          0                 1          10            70   18     2       0.5790204998E+01      70   19    2       0.1397561901E+06      0.5471873038E+06      0.3176775153E+02      0.5790204998E+01
          0                 2           9            69   20     2       0.1915848595E+01      66   25    1      -0.4246894209E+05      0.7821642332E+05      0.5471873038E+06      0.1915848595E+01
          0                 3           5            69   20     2      -0.1738245537E+00      69   20    2      -0.2184457002E+04      0.2222722369E+04      0.7821642332E+05     -0.1738245537E+00
          0                 4           2            63    2     3       0.1986874353E-03      63    2    3       0.5677193135E+01      0.5805403522E+01      0.2222722369E+04      0.1986874353E-03

    ------------------------------------------------
       NWT REQUIRED            4 OUTER ITERATIONS 
       AND A TOTAL OF         26 INNER ITERATIONS.
    ------------------------------------------------

 NO OUTPUT CONTROL FOR STRESS PERIOD   20   TIME STEP    5

 SOLVING FOR HEAD 
                                                   Max.-Head-Change                        Max.-Flux-Residual
  Residual-Control   Outer-Iter.   Inner-Iter.     Column Row Layer    Max.-Head-Change    Column Row Layer    Max.-Flux-Residual            L2-New               L2-Old           Solver-Max-Delh
          0                 1          10            73   14     2       0.5094512732E+01      73   14    2       0.1231296603E+06      0.5199279852E+06      0.5805403522E+01      0.5094512732E+01
          0                 2           9            73   14     2      -0.4639419489E+00      73   14    2      -0.1245497433E+05      0.5242396026E+05      0.5199279852E+06     -0.4639419489E+00
          0                 3           4            84   48     2      -0.5001825506E-02      84   48    2      -0.5869910972E+02      0.6859066759E+02      0.5242396026E+05     -0.5001825506E-02

    ------------------------------------------------
       NWT REQUIRED            3 OUTER ITERATIONS 
       AND A TOTAL OF         23 INNER ITERATIONS.
    ------------------------------------------------

 NO OUTPUT CONTROL FOR STRESS PERIOD   20   TIME STEP    6

 SOLVING FOR HEAD 
                                                   Max.-Head-Change                        Max.-Flux-Residual
  Residual-Control   Outer-Iter.   Inner-Iter.     Column Row Layer    Max.-Head-Change    Column Row Layer    Max.-Flux-Residual            L2-New               L2-Old           Solver-Max-Delh
          0                 1          10            73   14     2       0.4819877864E+01      73   14    2       0.1168732811E+06      0.4947637333E+06      0.6859066759E+02      0.4819877864E+01
          0                 2           9            71   16     2       0.4516181961E+01      71   16    2       0.3173265739E+05      0.5847221848E+05      0.4947637333E+06      0.4516181961E+01
          0                 3           5            71   16     2      -0.4100685393E+00      71   16    2      -0.3152421257E+04      0.3302489674E+04      0.5847221848E+05     -0.4100685393E+00
          0                 4           4            67    9     3       0.1319377163E-02      67    9    3       0.3991140377E+02      0.3991262179E+02      0.3302489674E+04      0.1319377163E-02

    ------------------------------------------------
       NWT REQUIRED            4 OUTER ITERATIONS 
       AND A TOTAL OF         28 INNER ITERATIONS.
    ------------------------------------------------

 NO OUTPUT CONTROL FOR STRESS PERIOD   20   TIME STEP    7

 SOLVING FOR HEAD 
                                                   Max.-Head-Change                        Max.-Flux-Residual
  Residual-Control   Outer-Iter.   Inner-Iter.     Column Row Layer    Max.-Head-Change    Column Row Layer    Max.-Flux-Residual            L2-New               L2-Old           Solver-Max-Delh
          0                 1          10            71   16     2       0.9203550693E+01      73   14    2       0.1106324990E+06      0.4769144076E+06      0.3991262179E+02      0.9203550693E+01
          0                 2           9            71   16     2      -0.1052560998E+01      73   14    2      -0.1303859200E+05      0.4840313925E+05      0.4769144076E+06     -0.1052560998E+01
          0                 3           5            67    9     3      -0.2324343328E-01      67    9    3      -0.2883918246E+03      0.2957025570E+03      0.4840313925E+05     -0.2324343328E-01
          0                 4           2            66    2     2      -0.1210790617E-03      64    8    3       0.7164634764E+00      0.7639700556E+00      0.2957025570E+03     -0.1210790617E-03

    ------------------------------------------------
       NWT REQUIRED            4 OUTER ITERATIONS 
       AND A TOTAL OF         26 INNER ITERATIONS.
    ------------------------------------------------

 NO OUTPUT CONTROL FOR STRESS PERIOD   20   TIME STEP    8

 SOLVING FOR HEAD 
                                                   Max.-Head-Change                        Max.-Flux-Residual
  Residual-Control   Outer-Iter.   Inner-Iter.     Column Row Layer    Max.-Head-Change    Column Row Layer    Max.-Flux-Residual            L2-New               L2-Old           Solver-Max-Delh
          0                 1          10            71   16     1       0.4403630684E+01      71   16    1       0.1164963609E+06      0.4669864997E+06      0.7639700556E+00      0.4403630684E+01
          0                 2           9            73   14     1      -0.9637690522E+00      73   14    1      -0.3127787486E+05      0.5667659098E+05      0.4669864997E+06     -0.9637690522E+00
          0                 3           4            66   25     2      -0.2198270309E-01      66   25    2      -0.6133747427E+03      0.7034196295E+03      0.5667659098E+05     -0.2198270309E-01
          0                 4           2            66    2     2      -0.1151349698E-03      23    2    1       0.3596740626E+00      0.4264199581E+00      0.7034196295E+03     -0.1151349698E-03

    ------------------------------------------------
       NWT REQUIRED            4 OUTER ITERATIONS 
       AND A TOTAL OF         25 INNER ITERATIONS.
    ------------------------------------------------

 NO OUTPUT CONTROL FOR STRESS PERIOD   20   TIME STEP    9

 SOLVING FOR HEAD 
                                                   Max.-Head-Change                        Max.-Flux-Residual
  Residual-Control   Outer-Iter.   Inner-Iter.     Column Row Layer    Max.-Head-Change    Column Row Layer    Max.-Flux-Residual            L2-New               L2-Old           Solver-Max-Delh
          0                 1          10            71   16     1       0.4153964537E+01      71   16    1       0.1100041953E+06      0.4531238890E+06      0.4264199581E+00      0.4153964537E+01
          0                 2           9            73   15     3       0.3666735186E+01      73   15    3       0.2806489384E+05      0.5317906299E+05      0.4531238890E+06      0.3666735186E+01
          0                 3           5            73   15     3      -0.3325829951E+00      73   15    3      -0.2806489415E+04      0.2855970242E+04      0.5317906299E+05     -0.3325829951E+00
          0                 4           2            73   15     1      -0.4638266785E-03      73   15    1      -0.2067356143E+01      0.2103142298E+01      0.2855970242E+04     -0.4638266785E-03

    ------------------------------------------------
       NWT REQUIRED            4 OUTER ITERATIONS 
       AND A TOTAL OF         26 INNER ITERATIONS.
    ------------------------------------------------

 NO OUTPUT CONTROL FOR STRESS PERIOD   20   TIME STEP   10

 SOLVING FOR HEAD 
                                                   Max.-Head-Change                        Max.-Flux-Residual
  Residual-Control   Outer-Iter.   Inner-Iter.     Column Row Layer    Max.-Head-Change    Column Row Layer    Max.-Flux-Residual            L2-New               L2-Old           Solver-Max-Delh
          0                 1          10            73   15     3       0.6424917361E+01      71   16    1       0.1037925766E+06      0.4418970314E+06      0.2103142298E+01      0.6424917361E+01
          0                 2           9            71   18     3       0.2547536194E+01      71   16    1      -0.1047357252E+05      0.4546930905E+05      0.4418970314E+06      0.2547536194E+01
          0                 3           5            71   18     3      -0.2316253441E+00      71   18    3      -0.1045673857E+04      0.1087961517E+04      0.4546930905E+05     -0.2316253441E+00
          0                 4           2            66    2     2      -0.1056200880E-03      73    8    3       0.7437391765E-01      0.2009483944E+00      0.1087961517E+04     -0.1056200880E-03

    ------------------------------------------------
       NWT REQUIRED            4 OUTER ITERATIONS 
       AND A TOTAL OF         26 INNER ITERATIONS.
    ------------------------------------------------

 NO OUTPUT CONTROL FOR STRESS PERIOD   20   TIME STEP   11

 SOLVING FOR HEAD 
                                                   Max.-Head-Change                        Max.-Flux-Residual
  Residual-Control   Outer-Iter.   Inner-Iter.     Column Row Layer    Max.-Head-Change    Column Row Layer    Max.-Flux-Residual            L2-New               L2-Old           Solver-Max-Delh
          0                 1          10            73   15     2       0.4063825952E+01      71   16    1       0.9807486780E+05      0.4351971211E+06      0.2009483944E+00      0.4063825952E+01
          0                 2           9            70   19     2       0.1346237126E+01      70   19    2       0.1810444184E+05      0.4762999211E+05      0.4351971211E+06      0.1346237126E+01
          0                 3           5            70   19     2      -0.1220986462E+00      70   19    2      -0.1767214310E+04      0.2167575356E+04      0.4762999211E+05     -0.1220986462E+00
          0                 4           2            71   19     2      -0.2571268594E-03      71   19    2      -0.9804165494E+00      0.1233138643E+01      0.2167575356E+04     -0.2571268594E-03

    ------------------------------------------------
       NWT REQUIRED            4 OUTER ITERATIONS 
       AND A TOTAL OF         26 INNER ITERATIONS.
    ------------------------------------------------

 OUTPUT CONTROL FOR STRESS PERIOD   20   TIME STEP   12
    SAVE BUDGET
 UBDSV1 SAVING "         STORAGE" ON UNIT  39 AT TIME STEP 12, STRESS PERIOD  20
 UBDSV2 SAVING "   CONSTANT HEAD" ON UNIT  39 AT TIME STEP 12, STRESS PERIOD  20
 UBDSV1 SAVING "FLOW RIGHT FACE " ON UNIT  39 AT TIME STEP 12, STRESS PERIOD  20
 UBDSV1 SAVING "FLOW FRONT FACE " ON UNIT  39 AT TIME STEP 12, STRESS PERIOD  20
 UBDSV1 SAVING "FLOW LOWER FACE " ON UNIT  39 AT TIME STEP 12, STRESS PERIOD  20
 UBDSV3 SAVING "              ET" ON UNIT  39 AT TIME STEP 12, STRESS PERIOD  20
 UBDSV3 SAVING "        RECHARGE" ON UNIT  39 AT TIME STEP 12, STRESS PERIOD  20
1
  VOLUMETRIC BUDGET FOR ENTIRE MODEL AT END OF TIME STEP   12, STRESS PERIOD  20
  ------------------------------------------------------------------------------

     CUMULATIVE VOLUMES      L**3       RATES FOR THIS TIME STEP      L**3/T
     ------------------                 ------------------------

           IN:                                      IN:
           ---                                      ---
             STORAGE = 15140128768.0000               STORAGE =     2015743.1250
       CONSTANT HEAD =  6801309184.0000         CONSTANT HEAD =      838089.7500
               WELLS =   324179520.0000                 WELLS =           0.0000
                  ET =           0.0000                    ET =           0.0000
            RECHARGE =102061105152.0000              RECHARGE =    20980054.0000

            TOTAL IN =124326723584.0000              TOTAL IN =    23833888.0000

          OUT:                                     OUT:
          ----                                     ----
             STORAGE = 21900017664.0000               STORAGE =     7258413.5000
       CONSTANT HEAD = 38979559424.0000         CONSTANT HEAD =     6825543.5000
               WELLS =   307693120.0000                 WELLS =       16507.0000
                  ET = 63139999744.0000                    ET =     9733449.0000
            RECHARGE =           0.0000              RECHARGE =           0.0000

           TOTAL OUT =124327264256.0000             TOTAL OUT =    23833912.0000

            IN - OUT =     -540672.0000              IN - OUT =         -24.0000

 PERCENT DISCREPANCY =          -0.00     PERCENT DISCREPANCY =          -0.00






         TIME SUMMARY AT END OF TIME STEP   12 IN STRESS PERIOD   20
                    SECONDS     MINUTES      HOURS       DAYS        YEARS
                    -----------------------------------------------------------
   TIME STEP LENGTH 2.62800E+06  43800.      730.00      30.417     8.32763E-02
 STRESS PERIOD TIME 3.15360E+07 5.25600E+05  8760.0      365.00     0.99932    
         TOTAL TIME 6.31151E+08 1.05192E+07 1.75320E+05  7305.0      20.000    
1
1
                            STRESS PERIOD NO.   21, LENGTH =   366.0000    
                            -----------------------------------------------

                              NUMBER OF TIME STEPS =    12

                               MULTIPLIER FOR DELT =     1.000

                            INITIAL TIME STEP SIZE =   30.50000    

 WELL NO.  LAYER   ROW   COL   STRESS RATE         
 --------------------------------------------------
      1      2     32     42     -0.2288E+05

      1 WELL 

 REUSING SURF FROM LAST STRESS PERIOD

 REUSING EVTR FROM LAST STRESS PERIOD

 REUSING EXDP FROM LAST STRESS PERIOD



                           RECHARGE
 READING ON UNIT   16 WITH FORMAT: (15F5.0)            


     63 TIME-VARIANT SPECIFIED-HEAD CELLS

 SOLVING FOR HEAD 
                                                   Max.-Head-Change                        Max.-Flux-Residual
  Residual-Control   Outer-Iter.   Inner-Iter.     Column Row Layer    Max.-Head-Change    Column Row Layer    Max.-Flux-Residual            L2-New               L2-Old           Solver-Max-Delh
          0                 1          11            65    1     2      -0.4709721528E+02      70   19    1      -0.1473985373E+06      0.7136224765E+06      0.1233138643E+01     -0.4709721528E+02
          0                 2           9            66   14     1       0.2197890566E+01      70   19    1       0.1454032412E+05      0.7056229035E+05      0.7136224765E+06      0.2197890566E+01
          0                 3           5            66    3     2       0.5384428244E-01      69   48    1       0.1560172625E+03      0.2698531006E+03      0.7056229035E+05      0.5384428244E-01
          0                 4           3            66    3     2       0.3254241369E-02      70   17    2       0.2408371982E+01      0.4221772073E+01      0.2698531006E+03      0.3254241369E-02

    ------------------------------------------------
       NWT REQUIRED            4 OUTER ITERATIONS 
       AND A TOTAL OF         28 INNER ITERATIONS.
    ------------------------------------------------

 NO OUTPUT CONTROL FOR STRESS PERIOD   21   TIME STEP    1

 SOLVING FOR HEAD 
                                                   Max.-Head-Change                        Max.-Flux-Residual
  Residual-Control   Outer-Iter.   Inner-Iter.     Column Row Layer    Max.-Head-Change    Column Row Layer    Max.-Flux-Residual            L2-New               L2-Old           Solver-Max-Delh
          0                 1          11            51  103     3       0.3898939404E+01      70   19    1      -0.1024246378E+06      0.4755036303E+06      0.4221772073E+01      0.3898939404E+01
          0                 2           9            73   14     1      -0.1735935391E+01      73   14    1      -0.1158802950E+05      0.4835845721E+05      0.4755036303E+06     -0.1735935391E+01
          0                 3           5            73   14     1       0.1513966946E+00      73   14    1       0.1110540993E+04      0.1129945845E+04      0.4835845721E+05      0.1513966946E+00
          0                 4           2            73   14     1       0.5491550248E-03      73   14    1       0.4205344446E+01      0.4219370820E+01      0.1129945845E+04      0.5491550248E-03

    ------------------------------------------------
       NWT REQUIRED            4 OUTER ITERATIONS 
       AND A TOTAL OF         27 INNER ITERATIONS.
    ------------------------------------------------

 NO OUTPUT CONTROL FOR STRESS PERIOD   21   TIME STEP    2

 SOLVING FOR HEAD 
                                                   Max.-Head-Change                        Max.-Flux-Residual
  Residual-Control   Outer-Iter.   Inner-Iter.     Column Row Layer    Max.-Head-Change    Column Row Layer    Max.-Flux-Residual            L2-New               L2-Old           Solver-Max-Delh
          0                 1          11            73   14     1      -0.5810354213E+01      70   19    1      -0.9037198146E+05      0.4021555669E+06      0.4219370820E+01     -0.5810354213E+01
          0                 2           9            65    2     2      -0.7971159418E+02      69   21    1      -0.4191980124E+05      0.7495021452E+05      0.4021555669E+06     -0.7971159418E+02
          0                 3           4            65    2     2       0.2620692159E+01      69   21    1       0.3929133676E+04      0.5185535185E+04      0.7495021452E+05      0.2620692159E+01
          0                 4           3            65    2     2       0.1477016359E+00      65    2    2       0.6674109175E+02      0.7134165068E+02      0.5185535185E+04      0.1477016359E+00
          0                 5           2            65    2     2       0.8317816810E-02      65    2    3       0.5663047515E+01      0.6873538749E+01      0.7134165068E+02      0.8317816810E-02

    ------------------------------------------------
       NWT REQUIRED            5 OUTER ITERATIONS 
       AND A TOTAL OF         29 INNER ITERATIONS.
    ------------------------------------------------

 NO OUTPUT CONTROL FOR STRESS PERIOD   21   TIME STEP    3

 SOLVING FOR HEAD 
                                                   Max.-Head-Change                        Max.-Flux-Residual
  Residual-Control   Outer-Iter.   Inner-Iter.     Column Row Layer    Max.-Head-Change    Column Row Layer    Max.-Flux-Residual            L2-New               L2-Old           Solver-Max-Delh
          0                 1          11            66    1     2      -0.5777709126E+02      51  103    3       0.8000928377E+05      0.3505491669E+06      0.6873538749E+01     -0.5777709126E+02
          0                 2           9            66    1     2       0.1577807281E+01      51  103    3      -0.8038237311E+04      0.3488553724E+05      0.3505491669E+06      0.1577807281E+01
          0                 3           4            66    1     2       0.9908852588E-01      66    1    2       0.3970326169E+02      0.4951576723E+02      0.3488553724E+05      0.9908852588E-01
          0                 4           2            66    1     2       0.6215796228E-02      66    1    2       0.2490378945E+01      0.2913017389E+01      0.4951576723E+02      0.6215796228E-02

    ------------------------------------------------
       NWT REQUIRED            4 OUTER ITERATIONS 
       AND A TOTAL OF         26 INNER ITERATIONS.
    ------------------------------------------------

 NO OUTPUT CONTROL FOR STRESS PERIOD   21   TIME STEP    4

 SOLVING FOR HEAD 
                                                   Max.-Head-Change                        Max.-Flux-Residual
  Residual-Control   Outer-Iter.   Inner-Iter.     Column Row Layer    Max.-Head-Change    Column Row Layer    Max.-Flux-Residual            L2-New               L2-Old           Solver-Max-Delh
          0                 1          11            51  103     3       0.3746119227E+01      51  103    3       0.7895280793E+05      0.3172482652E+06      0.2913017389E+01      0.3746119227E+01
          0                 2           9            66    4     2      -0.9302452154E+00      72   15    2       0.2377523510E+05      0.4023471783E+05      0.3172482652E+06     -0.9302452154E+00
          0                 3           5            66    4     2       0.3033773453E-01      66    4    3      -0.3065517328E+02      0.5255422299E+02      0.4023471783E+05      0.3033773453E-01
          0                 4           2            66    4     2       0.1779728195E-02      74   48    1       0.9456211366E+00      0.1398134702E+01      0.5255422299E+02      0.1779728195E-02

    ------------------------------------------------
       NWT REQUIRED            4 OUTER ITERATIONS 
       AND A TOTAL OF         27 INNER ITERATIONS.
    ------------------------------------------------

 NO OUTPUT CONTROL FOR STRESS PERIOD   21   TIME STEP    5

 SOLVING FOR HEAD 
                                                   Max.-Head-Change                        Max.-Flux-Residual
  Residual-Control   Outer-Iter.   Inner-Iter.     Column Row Layer    Max.-Head-Change    Column Row Layer    Max.-Flux-Residual            L2-New               L2-Old           Solver-Max-Delh
          0                 1          11            66    4     2      -0.1135557096E+02      51  103    3       0.7785899648E+05      0.2903198991E+06      0.1398134702E+01     -0.1135557096E+02
          0                 2           9            65    6     2      -0.3200667083E+02      65    6    2      -0.1811898200E+05      0.3414578577E+05      0.2903198991E+06     -0.3200667083E+02
          0                 3           4            65    6     2       0.2410326945E+01      65    6    3      -0.1756914294E+04      0.2473911181E+04      0.3414578577E+05      0.2410326945E+01
          0                 4           2            65    6     2       0.9191651268E-01      65    6    2       0.6113204210E+02      0.7603979302E+02      0.2473911181E+04      0.9191651268E-01
          0                 5           2            65    6     2       0.3490306756E-02      65    6    3       0.4993094649E+01      0.6617513881E+01      0.7603979302E+02      0.3490306756E-02

    ------------------------------------------------
       NWT REQUIRED            5 OUTER ITERATIONS 
       AND A TOTAL OF         28 INNER ITERATIONS.
    ------------------------------------------------

 NO OUTPUT CONTROL FOR STRESS PERIOD   21   TIME STEP    6

 SOLVING FOR HEAD 
                                                   Max.-Head-Change                        Max.-Flux-Residual
  Residual-Control   Outer-Iter.   Inner-Iter.     Column Row Layer    Max.-Head-Change    Column Row Layer    Max.-Flux-Residual            L2-New               L2-Old           Solver-Max-Delh
          0                 1          11            65    6     2      -0.8778658741E+01      51  103    3       0.7673123119E+05      0.2688504035E+06      0.6617513881E+01     -0.8778658741E+01
          0                 2           9            65    3     2      -0.2299358635E+02      65    3    2      -0.9240367539E+04      0.2905246323E+05      0.2688504035E+06     -0.2299358635E+02
          0                 3           5            65    3     2       0.1049612924E+01      12    7    1       0.6245373460E+03      0.9253329650E+03      0.2905246323E+05      0.1049612924E+01
          0                 4           2            65    3     2       0.5444748547E-01      65    3    2       0.2659341795E+02      0.2989460684E+02      0.9253329650E+03      0.5444748547E-01
          0                 5           2            65    3     2       0.2817890385E-02      65    3    2       0.1376635120E+01      0.1816617095E+01      0.2989460684E+02      0.2817890385E-02

    ------------------------------------------------
       NWT REQUIRED            5 OUTER ITERATIONS 
       AND A TOTAL OF         29 INNER ITERATIONS.
    ------------------------------------------------

 NO OUTPUT CONTROL FOR STRESS PERIOD   21   TIME STEP    7

 SOLVING FOR HEAD 
                                                   Max.-Head-Change                        Max.-Flux-Residual
  Residual-Control   Outer-Iter.   Inner-Iter.     Column Row Layer    Max.-Head-Change    Column Row Layer    Max.-Flux-Residual            L2-New               L2-Old           Solver-Max-Delh
          0                 1          11            65    3     2      -0.1430411288E+02      51  103    3       0.7557293132E+05      0.2524289513E+06      0.1816617095E+01     -0.1430411288E+02
          0                 2           9            65    3     2       0.5043568022E+00      51  103    3      -0.7589798561E+04      0.2620383666E+05      0.2524289513E+06      0.5043568022E+00
          0                 3           4            90   67     2      -0.3532366733E-01      90   67    2      -0.3697599843E+03      0.3836534146E+03      0.2620383666E+05     -0.3532366733E-01
          0                 4           2            65    3     2       0.1343811573E-02      90   66    2       0.1057117134E+01      0.1350940050E+01      0.3836534146E+03      0.1343811573E-02

    ------------------------------------------------
       NWT REQUIRED            4 OUTER ITERATIONS 
       AND A TOTAL OF         26 INNER ITERATIONS.
    ------------------------------------------------

 NO OUTPUT CONTROL FOR STRESS PERIOD   21   TIME STEP    8

 SOLVING FOR HEAD 
                                                   Max.-Head-Change                        Max.-Flux-Residual
  Residual-Control   Outer-Iter.   Inner-Iter.     Column Row Layer    Max.-Head-Change    Column Row Layer    Max.-Flux-Residual            L2-New               L2-Old           Solver-Max-Delh
          0                 1          11            51  103     3       0.3520352307E+01      51  103    3       0.7438755975E+05      0.2395548997E+06      0.1350940050E+01      0.3520352307E+01
          0                 2           9            65    5     2      -0.2947822456E+02      65    5    2      -0.1414002350E+05      0.2833920768E+05      0.2395548997E+06     -0.2947822456E+02
          0                 3           4            65    5     2       0.2023737893E+01      65    5    3      -0.1420312313E+04      0.1931548813E+04      0.2833920768E+05      0.2023737893E+01
          0                 4           2            65    5     2       0.9014255799E-01      65    5    2       0.5145707398E+02      0.6343403444E+02      0.1931548813E+04      0.9014255799E-01
          0                 5           2            65    5     2       0.3998547215E-02      65    5    3       0.4315627534E+01      0.5766995884E+01      0.6343403444E+02      0.3998547215E-02

    ------------------------------------------------
       NWT REQUIRED            5 OUTER ITERATIONS 
       AND A TOTAL OF         28 INNER ITERATIONS.
    ------------------------------------------------

 NO OUTPUT CONTROL FOR STRESS PERIOD   21   TIME STEP    9

 SOLVING FOR HEAD 
                                                   Max.-Head-Change                        Max.-Flux-Residual
  Residual-Control   Outer-Iter.   Inner-Iter.     Column Row Layer    Max.-Head-Change    Column Row Layer    Max.-Flux-Residual            L2-New               L2-Old           Solver-Max-Delh
          0                 1          11            65    5     2      -0.9743478677E+01      51  103    3       0.7317857200E+05      0.2277013726E+06      0.5766995884E+01     -0.9743478677E+01
          0                 2           9            65    5     2       0.4212630521E+00      51  103    3      -0.7347888729E+04      0.2275686501E+05      0.2277013726E+06      0.4212630521E+00
          0                 3           4            65    5     2       0.1859249505E-01      65    5    2       0.1054693678E+02      0.1866574994E+02      0.2275686501E+05      0.1859249505E-01
          0                 4           2            65    5     2       0.8250044769E-03      65    3    3      -0.6712735109E+00      0.8394624684E+00      0.1866574994E+02      0.8250044769E-03

    ------------------------------------------------
       NWT REQUIRED            4 OUTER ITERATIONS 
       AND A TOTAL OF         26 INNER ITERATIONS.
    ------------------------------------------------

 NO OUTPUT CONTROL FOR STRESS PERIOD   21   TIME STEP   10

 SOLVING FOR HEAD 
                                                   Max.-Head-Change                        Max.-Flux-Residual
  Residual-Control   Outer-Iter.   Inner-Iter.     Column Row Layer    Max.-Head-Change    Column Row Layer    Max.-Flux-Residual            L2-New               L2-Old           Solver-Max-Delh
          0                 1          11            51  103     3       0.3401015783E+01      51  103    3       0.7194941671E+05      0.2179477294E+06      0.8394624684E+00      0.3401015783E+01
          0                 2           9            70   19     1      -0.1902971723E+01      70   19    1      -0.1434131117E+05      0.2591144831E+05      0.2179477294E+06     -0.1902971723E+01
          0                 3           4            70   19     1       0.1658330764E+00      70   19    1       0.1376554976E+04      0.1399870235E+04      0.2591144831E+05      0.1658330764E+00
          0                 4           2            70   19     1       0.6261350977E-03      70   19    1       0.4974725280E+01      0.5422912949E+01      0.1399870235E+04      0.6261350977E-03

    ------------------------------------------------
       NWT REQUIRED            4 OUTER ITERATIONS 
       AND A TOTAL OF         26 INNER ITERATIONS.
    ------------------------------------------------

 NO OUTPUT CONTROL FOR STRESS PERIOD   21   TIME STEP   11

 INTERPOLATION FOR HEAD OBS# 1737, ID 2615-21-353  CHANGED BECAUSE AT LEAST ONE
 NEIGHBORING CELL REQUIRED FOR INTERPOLATION IS DRY OR INACTIVE (OBS2BAS7SE)

 SOLVING FOR HEAD 
                                                   Max.-Head-Change                        Max.-Flux-Residual
  Residual-Control   Outer-Iter.   Inner-Iter.     Column Row Layer    Max.-Head-Change    Column Row Layer    Max.-Flux-Residual            L2-New               L2-Old           Solver-Max-Delh
          0                 1          11            51  103     3       0.3340308623E+01      51  103    3       0.7070349836E+05      0.2100750037E+06      0.5422912949E+01      0.3340308623E+01
          0                 2           9            51  103     3      -0.3046263167E+00      51  103    3      -0.7097907534E+04      0.2098541399E+05      0.2100750037E+06     -0.3046263167E+00
          0                 3           4            70   19     1       0.9277579684E-03      70   19    1       0.7381674729E+01      0.1065539662E+02      0.2098541399E+05      0.9277579684E-03

    ------------------------------------------------
       NWT REQUIRED            3 OUTER ITERATIONS 
       AND A TOTAL OF         24 INNER ITERATIONS.
    ------------------------------------------------

 OUTPUT CONTROL FOR STRESS PERIOD   21   TIME STEP   12
    SAVE BUDGET
    SAVE HEAD FOR LAYERS:   1  2  3
 UBDSV1 SAVING "         STORAGE" ON UNIT  39 AT TIME STEP 12, STRESS PERIOD  21
 UBDSV2 SAVING "   CONSTANT HEAD" ON UNIT  39 AT TIME STEP 12, STRESS PERIOD  21
 UBDSV1 SAVING "FLOW RIGHT FACE " ON UNIT  39 AT TIME STEP 12, STRESS PERIOD  21
 UBDSV1 SAVING "FLOW FRONT FACE " ON UNIT  39 AT TIME STEP 12, STRESS PERIOD  21
 UBDSV1 SAVING "FLOW LOWER FACE " ON UNIT  39 AT TIME STEP 12, STRESS PERIOD  21
 UBDSV3 SAVING "              ET" ON UNIT  39 AT TIME STEP 12, STRESS PERIOD  21
 UBDSV3 SAVING "        RECHARGE" ON UNIT  39 AT TIME STEP 12, STRESS PERIOD  21

 INTERPOLATION FOR HEAD OBS# 1078, ID 2927-22-17   CHANGED BECAUSE AT LEAST ONE
 NEIGHBORING CELL REQUIRED FOR INTERPOLATION IS DRY OR INACTIVE (OBS2BAS7SE)

 INTERPOLATION FOR HEAD OBS# 3400, ID 1428-22-12   CHANGED BECAUSE AT LEAST ONE
 NEIGHBORING CELL REQUIRED FOR INTERPOLATION IS DRY OR INACTIVE (OBS2BAS7SE)

 INTERPOLATION FOR HEAD OBS# 3706, ID 1471-22-26   CHANGED BECAUSE AT LEAST ONE
 NEIGHBORING CELL REQUIRED FOR INTERPOLATION IS DRY OR INACTIVE (OBS2BAS7SE)

 INTERPOLATION FOR HEAD OBS# 3774, ID 1349-22-30   CHANGED BECAUSE AT LEAST ONE
 NEIGHBORING CELL REQUIRED FOR INTERPOLATION IS DRY OR INACTIVE (OBS2BAS7SE)

 HEAD WILL BE SAVED ON UNIT   31 AT END OF TIME STEP   12, STRESS PERIOD   21
1
  VOLUMETRIC BUDGET FOR ENTIRE MODEL AT END OF TIME STEP   12, STRESS PERIOD  21
  ------------------------------------------------------------------------------

     CUMULATIVE VOLUMES      L**3       RATES FOR THIS TIME STEP      L**3/T
     ------------------                 ------------------------

           IN:                                      IN:
           ---                                      ---
             STORAGE = 16073177088.0000               STORAGE =     1882478.0000
       CONSTANT HEAD =  7090298880.0000         CONSTANT HEAD =      767341.6250
               WELLS =   324179520.0000                 WELLS =           0.0000
                  ET =           0.0000                    ET =           0.0000
            RECHARGE =109100064768.0000              RECHARGE =    19232074.0000

            TOTAL IN =132587716608.0000              TOTAL IN =    21881894.0000

          OUT:                                     OUT:
          ----                                     ----
             STORAGE = 23869929472.0000               STORAGE =     4417595.5000
       CONSTANT HEAD = 41525157888.0000         CONSTANT HEAD =     7036913.5000
               WELLS =   316068928.0000                 WELLS =       22885.0000
                  ET = 66877104128.0000                    ET =    10404525.0000
            RECHARGE =           0.0000              RECHARGE =           0.0000

           TOTAL OUT =132588257280.0000             TOTAL OUT =    21881920.0000

            IN - OUT =     -540672.0000              IN - OUT =         -26.0000

 PERCENT DISCREPANCY =          -0.00     PERCENT DISCREPANCY =          -0.00






         TIME SUMMARY AT END OF TIME STEP   12 IN STRESS PERIOD   21
                    SECONDS     MINUTES      HOURS       DAYS        YEARS
                    -----------------------------------------------------------
   TIME STEP LENGTH 2.63520E+06  43920.      732.00      30.500     8.35044E-02
 STRESS PERIOD TIME 3.16224E+07 5.27040E+05  8784.0      366.00      1.0021    
         TOTAL TIME 6.62774E+08 1.10462E+07 1.84104E+05  7671.0      21.002    
1
1
                            STRESS PERIOD NO.   22, LENGTH =   365.0000    
                            -----------------------------------------------

                              NUMBER OF TIME STEPS =    12

                               MULTIPLIER FOR DELT =     1.000

                            INITIAL TIME STEP SIZE =   30.41667    

 WELL NO.  LAYER   ROW   COL   STRESS RATE         
 --------------------------------------------------
      1      2     31     43     -0.1927E+05

      1 WELL 

 REUSING SURF FROM LAST STRESS PERIOD

 REUSING EVTR FROM LAST STRESS PERIOD

 REUSING EXDP FROM LAST STRESS PERIOD



                           RECHARGE
 READING ON UNIT   16 WITH FORMAT: (15F5.0)            


     63 TIME-VARIANT SPECIFIED-HEAD CELLS

 SOLVING FOR HEAD 
                                                   Max.-Head-Change                        Max.-Flux-Residual
  Residual-Control   Outer-Iter.   Inner-Iter.     Column Row Layer    Max.-Head-Change    Column Row Layer    Max.-Flux-Residual            L2-New               L2-Old           Solver-Max-Delh
          0                 1          11            65    2     2       0.1085772034E+03      70   19    1       0.1742371130E+06      0.6306195482E+06      0.1065539662E+02      0.1085772034E+03
          0                 2          10            65    5     2      -0.2396610760E+02      65    5    2      -0.6409238944E+06      0.1008632469E+07      0.6306195482E+06     -0.2396610760E+02
          0                 3           5            66    5     2       0.3219079920E+01      65    5    2      -0.6998147742E+04      0.9425842346E+04      0.1008632469E+07      0.3219079920E+01
          0                 4           4            66    5     2       0.4918757889E+00      65    4    2       0.3180897520E+03      0.4803722778E+03      0.9425842346E+04      0.4918757889E+00
          0                 5           3            66    5     2       0.7400039005E-01      66    5    2       0.3080901647E+02      0.5270673954E+02      0.4803722778E+03      0.7400039005E-01
          0                 6           2            66    5     2       0.1112617062E-01      66    5    2       0.4631940302E+01      0.6385449592E+01      0.5270673954E+02      0.1112617062E-01
          0                 7           2            66    5     2       0.1671798410E-02      66    5    2       0.6959409257E+00      0.8452470418E+00      0.6385449592E+01      0.1671798410E-02

    ------------------------------------------------
       NWT REQUIRED            7 OUTER ITERATIONS 
       AND A TOTAL OF         37 INNER ITERATIONS.
    ------------------------------------------------

 NO OUTPUT CONTROL FOR STRESS PERIOD   22   TIME STEP    1

 INTERPOLATION FOR HEAD OBS# 1564, ID 2931-22-31   CHANGED BECAUSE AT LEAST ONE
 NEIGHBORING CELL REQUIRED FOR INTERPOLATION IS DRY OR INACTIVE (OBS2BAS7SE)

 INTERPOLATION FOR HEAD OBS# 3750, ID 1427-22-31   CHANGED BECAUSE AT LEAST ONE
 NEIGHBORING CELL REQUIRED FOR INTERPOLATION IS DRY OR INACTIVE (OBS2BAS7SE)

 INTERPOLATION FOR HEAD OBS# 5425, ID 846-22-33    CHANGED BECAUSE AT LEAST ONE
 NEIGHBORING CELL REQUIRED FOR INTERPOLATION IS DRY OR INACTIVE (OBS2BAS7SE)

 INTERPOLATION FOR HEAD OBS# 5686, ID 1168-22-32   CHANGED BECAUSE AT LEAST ONE
 NEIGHBORING CELL REQUIRED FOR INTERPOLATION IS DRY OR INACTIVE (OBS2BAS7SE)

 INTERPOLATION FOR HEAD OBS# 6260, ID 987-22-33    CHANGED BECAUSE AT LEAST ONE
 NEIGHBORING CELL REQUIRED FOR INTERPOLATION IS DRY OR INACTIVE (OBS2BAS7SE)

 SOLVING FOR HEAD 
                                                   Max.-Head-Change                        Max.-Flux-Residual
  Residual-Control   Outer-Iter.   Inner-Iter.     Column Row Layer    Max.-Head-Change    Column Row Layer    Max.-Flux-Residual            L2-New               L2-Old           Solver-Max-Delh
          0                 1          11            51  103     3       0.4946519571E+01      72   15    1       0.1089278591E+06      0.4874283871E+06      0.8452470418E+00      0.4946519571E+01
          0                 2           9            66   25     2       0.1180173573E+01      66   25    2       0.2575248212E+05      0.5930188172E+05      0.4874283871E+06      0.1180173573E+01
          0                 3           5            66   25     2      -0.1073493031E+00      66   25    2      -0.2564303317E+04      0.2633142635E+04      0.5930188172E+05     -0.1073493031E+00
          0                 4           2            25   77     2       0.1085732532E-03      20   73    3       0.1088772852E+01      0.1254741523E+01      0.2633142635E+04      0.1085732532E-03

    ------------------------------------------------
       NWT REQUIRED            4 OUTER ITERATIONS 
       AND A TOTAL OF         27 INNER ITERATIONS.
    ------------------------------------------------

 NO OUTPUT CONTROL FOR STRESS PERIOD   22   TIME STEP    2

 INTERPOLATION FOR HEAD OBS# 3192, ID 2435-22-72   CHANGED BECAUSE AT LEAST ONE
 NEIGHBORING CELL REQUIRED FOR INTERPOLATION IS DRY OR INACTIVE (OBS2BAS7SE)

 SOLVING FOR HEAD 
                                                   Max.-Head-Change                        Max.-Flux-Residual
  Residual-Control   Outer-Iter.   Inner-Iter.     Column Row Layer    Max.-Head-Change    Column Row Layer    Max.-Flux-Residual            L2-New               L2-Old           Solver-Max-Delh
          0                 1          11            51  103     3       0.4846477312E+01      51  103    3       0.1031119267E+06      0.4420248293E+06      0.1254741523E+01      0.4846477312E+01
          0                 2           9            51  103     3      -0.4426008627E+00      51  103    3      -0.1036917298E+05      0.4540369037E+05      0.4420248293E+06     -0.4426008627E+00
          0                 3           4            73   15     1      -0.1502411604E-02      60   89    1      -0.8426805079E+01      0.2237103814E+02      0.4540369037E+05     -0.1502411604E-02

    ------------------------------------------------
       NWT REQUIRED            3 OUTER ITERATIONS 
       AND A TOTAL OF         24 INNER ITERATIONS.
    ------------------------------------------------

 NO OUTPUT CONTROL FOR STRESS PERIOD   22   TIME STEP    3

 SOLVING FOR HEAD 
                                                   Max.-Head-Change                        Max.-Flux-Residual
  Residual-Control   Outer-Iter.   Inner-Iter.     Column Row Layer    Max.-Head-Change    Column Row Layer    Max.-Flux-Residual            L2-New               L2-Old           Solver-Max-Delh
          0                 1          11            51  103     3       0.4745120595E+01      51  103    3       0.1010324103E+06      0.4126803441E+06      0.2237103814E+02      0.4745120595E+01
          0                 2           9            72   15     2       0.2027314461E+01      72   15    2       0.1883985388E+05      0.4656472617E+05      0.4126803441E+06      0.2027314461E+01
          0                 3           6            72   15     2      -0.1840875934E+00      72   15    2      -0.1868396691E+04      0.2332512580E+04      0.4656472617E+05     -0.1840875934E+00
          0                 4           2            25   77     2       0.1174972957E-03      13    7    1       0.7607941628E+00      0.8033792880E+00      0.2332512580E+04      0.1174972957E-03

    ------------------------------------------------
       NWT REQUIRED            4 OUTER ITERATIONS 
       AND A TOTAL OF         28 INNER ITERATIONS.
    ------------------------------------------------

 NO OUTPUT CONTROL FOR STRESS PERIOD   22   TIME STEP    4

 SOLVING FOR HEAD 
                                                   Max.-Head-Change                        Max.-Flux-Residual
  Residual-Control   Outer-Iter.   Inner-Iter.     Column Row Layer    Max.-Head-Change    Column Row Layer    Max.-Flux-Residual            L2-New               L2-Old           Solver-Max-Delh
          0                 1          11            72   15     2       0.5659543019E+01      51  103    3       0.9892519413E+05      0.3947455361E+06      0.8033792880E+00      0.5659543019E+01
          0                 2           9            70   17     1      -0.8235138992E+00      70   17    1      -0.3032629473E+05      0.5036946304E+05      0.3947455361E+06     -0.8235138992E+00
          0                 3           4            63   23     3      -0.5548577270E-02      63   23    3      -0.9870290552E+02      0.1137831473E+03      0.5036946304E+05     -0.5548577270E-02

    ------------------------------------------------
       NWT REQUIRED            3 OUTER ITERATIONS 
       AND A TOTAL OF         24 INNER ITERATIONS.
    ------------------------------------------------

 NO OUTPUT CONTROL FOR STRESS PERIOD   22   TIME STEP    5

 SOLVING FOR HEAD 
                                                   Max.-Head-Change                        Max.-Flux-Residual
  Residual-Control   Outer-Iter.   Inner-Iter.     Column Row Layer    Max.-Head-Change    Column Row Layer    Max.-Flux-Residual            L2-New               L2-Old           Solver-Max-Delh
          0                 1          11            51  103     3       0.4539945383E+01      51  103    3       0.9679804061E+05      0.3838216556E+06      0.1137831473E+03      0.4539945383E+01
          0                 2           9            70   19     2       0.2922465597E+01      70   19    2       0.3580171524E+05      0.5233291886E+05      0.3838216556E+06      0.2922465597E+01
          0                 3           5            70   19     2      -0.2649337731E+00      70   19    2      -0.3572171254E+04      0.3665149090E+04      0.5233291886E+05     -0.2649337731E+00
          0                 4           2            71   19     2      -0.6217948257E-03      71   19    2      -0.2244159834E+01      0.2259758631E+01      0.3665149090E+04     -0.6217948257E-03

    ------------------------------------------------
       NWT REQUIRED            4 OUTER ITERATIONS 
       AND A TOTAL OF         27 INNER ITERATIONS.
    ------------------------------------------------

 NO OUTPUT CONTROL FOR STRESS PERIOD   22   TIME STEP    6

 SOLVING FOR HEAD 
                                                   Max.-Head-Change                        Max.-Flux-Residual
  Residual-Control   Outer-Iter.   Inner-Iter.     Column Row Layer    Max.-Head-Change    Column Row Layer    Max.-Flux-Residual            L2-New               L2-Old           Solver-Max-Delh
          0                 1          11            51  103     3       0.4436833002E+01      51  103    3       0.9465848362E+05      0.3741197549E+06      0.2259758631E+01      0.4436833002E+01
          0                 2           9            51  103     3      -0.4049502667E+00      51  103    3      -0.9512295759E+04      0.3819226357E+05      0.3741197549E+06     -0.4049502667E+00
          0                 3           4            73   15     1      -0.1391716694E-02      73   15    1      -0.6167350926E+01      0.1993238294E+02      0.3819226357E+05     -0.1391716694E-02

    ------------------------------------------------
       NWT REQUIRED            3 OUTER ITERATIONS 
       AND A TOTAL OF         24 INNER ITERATIONS.
    ------------------------------------------------

 NO OUTPUT CONTROL FOR STRESS PERIOD   22   TIME STEP    7

 SOLVING FOR HEAD 
                                                   Max.-Head-Change                        Max.-Flux-Residual
  Residual-Control   Outer-Iter.   Inner-Iter.     Column Row Layer    Max.-Head-Change    Column Row Layer    Max.-Flux-Residual            L2-New               L2-Old           Solver-Max-Delh
          0                 1          11            51  103     3       0.4333813859E+01      51  103    3       0.9251372117E+05      0.3665442271E+06      0.1993238294E+02      0.4333813859E+01
          0                 2           9            51  103     3      -0.3954877354E+00      51  103    3      -0.9295063878E+04      0.3673803960E+05      0.3665442271E+06     -0.3954877354E+00
          0                 3           5            13    6     1       0.1515262059E-02      13    6    1       0.1281509452E+03      0.1832003947E+03      0.3673803960E+05      0.1515262059E-02

    ------------------------------------------------
       NWT REQUIRED            3 OUTER ITERATIONS 
       AND A TOTAL OF         25 INNER ITERATIONS.
    ------------------------------------------------

 NO OUTPUT CONTROL FOR STRESS PERIOD   22   TIME STEP    8

 SOLVING FOR HEAD 
                                                   Max.-Head-Change                        Max.-Flux-Residual
  Residual-Control   Outer-Iter.   Inner-Iter.     Column Row Layer    Max.-Head-Change    Column Row Layer    Max.-Flux-Residual            L2-New               L2-Old           Solver-Max-Delh
          0                 1          11            51  103     3       0.4231195590E+01      51  103    3       0.9037057628E+05      0.3578655221E+06      0.1832003947E+03      0.4231195590E+01
          0                 2           9            51  103     3      -0.3860645794E+00      51  103    3      -0.9078068068E+04      0.3603258022E+05      0.3578655221E+06     -0.3860645794E+00
          0                 3           4            73   15     1      -0.1327113780E-02      73   15    1      -0.5882120809E+01      0.1979023916E+02      0.3603258022E+05     -0.1327113780E-02

    ------------------------------------------------
       NWT REQUIRED            3 OUTER ITERATIONS 
       AND A TOTAL OF         24 INNER ITERATIONS.
    ------------------------------------------------

 NO OUTPUT CONTROL FOR STRESS PERIOD   22   TIME STEP    9

 SOLVING FOR HEAD 
                                                   Max.-Head-Change                        Max.-Flux-Residual
  Residual-Control   Outer-Iter.   Inner-Iter.     Column Row Layer    Max.-Head-Change    Column Row Layer    Max.-Flux-Residual            L2-New               L2-Old           Solver-Max-Delh
          0                 1          11            51  103     3       0.4129265684E+01      51  103    3       0.8823548735E+05      0.3506466804E+06      0.1979023916E+02      0.4129265684E+01
          0                 2           9            73   14     2       0.1825151788E+01      73   14    2       0.1910379022E+05      0.3986057764E+05      0.3506466804E+06      0.1825151788E+01
          0                 3           6            73   14     2      -0.1658176036E+00      73   14    2      -0.1889019033E+04      0.1959018225E+04      0.3986057764E+05     -0.1658176036E+00
          0                 4           1            25   77     2       0.1426970851E-03      33   42    3       0.6345228525E-01      0.1486675154E+00      0.1959018225E+04      0.1426970851E-03

    ------------------------------------------------
       NWT REQUIRED            4 OUTER ITERATIONS 
       AND A TOTAL OF         27 INNER ITERATIONS.
    ------------------------------------------------

 NO OUTPUT CONTROL FOR STRESS PERIOD   22   TIME STEP   10

 SOLVING FOR HEAD 
                                                   Max.-Head-Change                        Max.-Flux-Residual
  Residual-Control   Outer-Iter.   Inner-Iter.     Column Row Layer    Max.-Head-Change    Column Row Layer    Max.-Flux-Residual            L2-New               L2-Old           Solver-Max-Delh
          0                 1          11            51  103     3       0.4028288041E+01      51  103    3       0.8611442785E+05      0.3450204081E+06      0.1486675154E+00      0.4028288041E+01
          0                 2           9            51  103     3      -0.3674399366E+00      51  103    3      -0.8647349537E+04      0.3533164697E+05      0.3450204081E+06     -0.3674399366E+00
          0                 3           5            13    5     1       0.1833200885E-01      13    5    1       0.7230356058E+03      0.7560515053E+03      0.3533164697E+05      0.1833200885E-01
          0                 4           2            25   77     2       0.1456698734E-03      13    5    1       0.5283421427E+00      0.5542629636E+00      0.7560515053E+03      0.1456698734E-03

    ------------------------------------------------
       NWT REQUIRED            4 OUTER ITERATIONS 
       AND A TOTAL OF         27 INNER ITERATIONS.
    ------------------------------------------------

 NO OUTPUT CONTROL FOR STRESS PERIOD   22   TIME STEP   11

 SOLVING FOR HEAD 
                                                   Max.-Head-Change                        Max.-Flux-Residual
  Residual-Control   Outer-Iter.   Inner-Iter.     Column Row Layer    Max.-Head-Change    Column Row Layer    Max.-Flux-Residual            L2-New               L2-Old           Solver-Max-Delh
          0                 1          11            51  103     3       0.3928504505E+01      51  103    3       0.8401293056E+05      0.3418590159E+06      0.5542629636E+00      0.3928504505E+01
          0                 2           9            66   23     1      -0.4007013265E+00      66   23    1      -0.1901489551E+05      0.3919559537E+05      0.3418590159E+06     -0.4007013265E+00
          0                 3           5            66   23     2       0.5837884209E-01      66   23    2       0.3984810807E+04      0.3986247101E+04      0.3919559537E+05      0.5837884209E-01
          0                 4           4            66   23     2       0.5253126822E-02      66   23    2       0.3585386360E+03      0.3586216270E+03      0.3986247101E+04      0.5253126822E-02

    ------------------------------------------------
       NWT REQUIRED            4 OUTER ITERATIONS 
       AND A TOTAL OF         29 INNER ITERATIONS.
    ------------------------------------------------

 OUTPUT CONTROL FOR STRESS PERIOD   22   TIME STEP   12
    SAVE BUDGET
 UBDSV1 SAVING "         STORAGE" ON UNIT  39 AT TIME STEP 12, STRESS PERIOD  22
 UBDSV2 SAVING "   CONSTANT HEAD" ON UNIT  39 AT TIME STEP 12, STRESS PERIOD  22
 UBDSV1 SAVING "FLOW RIGHT FACE " ON UNIT  39 AT TIME STEP 12, STRESS PERIOD  22
 UBDSV1 SAVING "FLOW FRONT FACE " ON UNIT  39 AT TIME STEP 12, STRESS PERIOD  22
 UBDSV1 SAVING "FLOW LOWER FACE " ON UNIT  39 AT TIME STEP 12, STRESS PERIOD  22
 UBDSV3 SAVING "              ET" ON UNIT  39 AT TIME STEP 12, STRESS PERIOD  22
 UBDSV3 SAVING "        RECHARGE" ON UNIT  39 AT TIME STEP 12, STRESS PERIOD  22
1
  VOLUMETRIC BUDGET FOR ENTIRE MODEL AT END OF TIME STEP   12, STRESS PERIOD  22
  ------------------------------------------------------------------------------

     CUMULATIVE VOLUMES      L**3       RATES FOR THIS TIME STEP      L**3/T
     ------------------                 ------------------------

           IN:                                      IN:
           ---                                      ---
             STORAGE = 16896079872.0000               STORAGE =     1824609.1250
       CONSTANT HEAD =  7396126208.0000         CONSTANT HEAD =      871443.8750
               WELLS =   324179520.0000                 WELLS =           0.0000
                  ET =           0.0000                    ET =           0.0000
            RECHARGE =116823023616.0000              RECHARGE =    21158826.0000

            TOTAL IN =141439401984.0000              TOTAL IN =    23854880.0000

          OUT:                                     OUT:
          ----                                     ----
             STORAGE = 26506461184.0000               STORAGE =     6967722.0000
       CONSTANT HEAD = 44046098432.0000         CONSTANT HEAD =     6887768.5000
               WELLS =   323103808.0000                 WELLS =       19274.0000
                  ET = 70564306944.0000                    ET =     9980107.0000
            RECHARGE =           0.0000              RECHARGE =           0.0000

           TOTAL OUT =141439959040.0000             TOTAL OUT =    23854872.0000

            IN - OUT =     -557056.0000              IN - OUT =           8.0000

 PERCENT DISCREPANCY =          -0.00     PERCENT DISCREPANCY =           0.00






         TIME SUMMARY AT END OF TIME STEP   12 IN STRESS PERIOD   22
                    SECONDS     MINUTES      HOURS       DAYS        YEARS
                    -----------------------------------------------------------
   TIME STEP LENGTH 2.62800E+06  43800.      730.00      30.417     8.32763E-02
 STRESS PERIOD TIME 3.15360E+07 5.25600E+05  8760.0      365.00     0.99932    
         TOTAL TIME 6.94309E+08 1.15718E+07 1.92864E+05  8036.0      22.001    
1
1
                            STRESS PERIOD NO.   23, LENGTH =   365.0000    
                            -----------------------------------------------

                              NUMBER OF TIME STEPS =    12

                               MULTIPLIER FOR DELT =     1.000

                            INITIAL TIME STEP SIZE =   30.41667    

 WELL NO.  LAYER   ROW   COL   STRESS RATE         
 --------------------------------------------------
      1      2     31     43     -0.1757E+05

      1 WELL 

 REUSING SURF FROM LAST STRESS PERIOD

 REUSING EVTR FROM LAST STRESS PERIOD

 REUSING EXDP FROM LAST STRESS PERIOD



                           RECHARGE
 READING ON UNIT   16 WITH FORMAT: (15F5.0)            


     63 TIME-VARIANT SPECIFIED-HEAD CELLS

 SOLVING FOR HEAD 
                                                   Max.-Head-Change                        Max.-Flux-Residual
  Residual-Control   Outer-Iter.   Inner-Iter.     Column Row Layer    Max.-Head-Change    Column Row Layer    Max.-Flux-Residual            L2-New               L2-Old           Solver-Max-Delh
          0                 1          11            92   77     2      -0.4504467259E+02      70   19    1      -0.1349665461E+06      0.6197125845E+06      0.3586216270E+03     -0.4504467259E+02
          0                 2           9            65    2     2      -0.7374443718E+02      65    2    2      -0.2987151007E+05      0.7022655587E+05      0.6197125845E+06     -0.7374443718E+02
          0                 3           5            65    2     2       0.2324526778E+01      65    2    3      -0.2941450492E+04      0.3643287911E+04      0.7022655587E+05      0.2324526778E+01
          0                 4           3            65    2     2       0.1317848681E+00      65    2    2       0.5943484324E+02      0.6576532086E+02      0.3643287911E+04      0.1317848681E+00
          0                 5           2            65    2     2       0.7466054993E-02      65    2    3       0.5264305748E+01      0.6961837631E+01      0.6576532086E+02      0.7466054993E-02

    ------------------------------------------------
       NWT REQUIRED            5 OUTER ITERATIONS 
       AND A TOTAL OF         30 INNER ITERATIONS.
    ------------------------------------------------

 NO OUTPUT CONTROL FOR STRESS PERIOD   23   TIME STEP    1

 SOLVING FOR HEAD 
                                                   Max.-Head-Change                        Max.-Flux-Residual
  Residual-Control   Outer-Iter.   Inner-Iter.     Column Row Layer    Max.-Head-Change    Column Row Layer    Max.-Flux-Residual            L2-New               L2-Old           Solver-Max-Delh
          0                 1          11            66    1     2      -0.4354676875E+02      70   19    1      -0.1194582355E+06      0.4315589901E+06      0.6961837631E+01     -0.4354676875E+02
          0                 2           9            66    1     2       0.1194195251E+01      70   19    1       0.1178504683E+05      0.4287272640E+05      0.4315589901E+06      0.1194195251E+01
          0                 3           5            66    1     2       0.7511516552E-01      66    1    2       0.3009214805E+02      0.4803752244E+02      0.4287272640E+05      0.7511516552E-01
          0                 4           2            66    1     2       0.4718262510E-02      66    1    2       0.1890083588E+01      0.2563074556E+01      0.4803752244E+02      0.4718262510E-02

    ------------------------------------------------
       NWT REQUIRED            4 OUTER ITERATIONS 
       AND A TOTAL OF         27 INNER ITERATIONS.
    ------------------------------------------------

 NO OUTPUT CONTROL FOR STRESS PERIOD   23   TIME STEP    2

 SOLVING FOR HEAD 
                                                   Max.-Head-Change                        Max.-Flux-Residual
  Residual-Control   Outer-Iter.   Inner-Iter.     Column Row Layer    Max.-Head-Change    Column Row Layer    Max.-Flux-Residual            L2-New               L2-Old           Solver-Max-Delh
          0                 1          11            51  103     3       0.3674989491E+01      70   19    1      -0.1062915101E+06      0.3742513268E+06      0.2563074556E+01      0.3674989491E+01
          0                 2           9            65    6     2       0.7429870593E+00      70   19    1       0.1050464916E+05      0.3717288922E+05      0.3742513268E+06      0.7429870593E+00
          0                 3           5            65    6     2      -0.5835605756E+00      65    6    2      -0.1678351603E+05      0.1678418673E+05      0.3717288922E+05     -0.5835605756E+00
          0                 4           3            65    6     2      -0.5267310784E-01      65    6    2      -0.1514701874E+04      0.1515177502E+04      0.1678418673E+05     -0.5267310784E-01
          0                 5           2            65    6     2      -0.4737048959E-02      65    6    2      -0.1362011527E+03      0.1362443722E+03      0.1515177502E+04     -0.4737048959E-02

    ------------------------------------------------
       NWT REQUIRED            5 OUTER ITERATIONS 
       AND A TOTAL OF         30 INNER ITERATIONS.
    ------------------------------------------------

 NO OUTPUT CONTROL FOR STRESS PERIOD   23   TIME STEP    3

 SOLVING FOR HEAD 
                                                   Max.-Head-Change                        Max.-Flux-Residual
  Residual-Control   Outer-Iter.   Inner-Iter.     Column Row Layer    Max.-Head-Change    Column Row Layer    Max.-Flux-Residual            L2-New               L2-Old           Solver-Max-Delh
          0                 1          11            51  103     3       0.3580769422E+01      70   19    1      -0.9515173829E+05      0.3379044492E+06      0.1362443722E+03      0.3580769422E+01
          0                 2           9            65    6     2      -0.4346775483E+02      65    6    2      -0.2453892552E+05      0.4173697860E+05      0.3379044492E+06     -0.4346775483E+02
          0                 3           5            65    6     2       0.4192737858E+01      65    6    2       0.2867176010E+04      0.4010192432E+04      0.4173697860E+05      0.4192737858E+01
          0                 4           3            65    6     2       0.1585223072E+00      65    7    2      -0.1135446078E+03      0.1564845401E+03      0.4010192432E+04      0.1585223072E+00
          0                 5           2            65    6     2       0.5949479973E-02      65    6    3       0.9745512441E+01      0.1414898970E+02      0.1564845401E+03      0.5949479973E-02

    ------------------------------------------------
       NWT REQUIRED            5 OUTER ITERATIONS 
       AND A TOTAL OF         30 INNER ITERATIONS.
    ------------------------------------------------

 NO OUTPUT CONTROL FOR STRESS PERIOD   23   TIME STEP    4

 SOLVING FOR HEAD 
                                                   Max.-Head-Change                        Max.-Flux-Residual
  Residual-Control   Outer-Iter.   Inner-Iter.     Column Row Layer    Max.-Head-Change    Column Row Layer    Max.-Flux-Residual            L2-New               L2-Old           Solver-Max-Delh
          0                 1          11            65    3     2      -0.3458871770E+02      70   19    1      -0.8554486146E+05      0.3103028804E+06      0.1414898970E+02     -0.3458871770E+02
          0                 2           9            69   21     1      -0.5910402672E+01      69   21    1      -0.2942247030E+05      0.4368404251E+05      0.3103028804E+06     -0.5910402672E+01
          0                 3           5            69   21     1       0.5042402918E+00      85   62    1      -0.4418061994E+04      0.5218543651E+04      0.4368404251E+05      0.5042402918E+00
          0                 4           2            65    3     2       0.1033435263E-01      85   62    1      -0.3977547183E+03      0.3980863283E+03      0.5218543651E+04      0.1033435263E-01
          0                 5           1            85   62     1      -0.9076853193E-03      85   62    1      -0.3575921421E+02      0.3576103959E+02      0.3980863283E+03     -0.9076853193E-03

    ------------------------------------------------
       NWT REQUIRED            5 OUTER ITERATIONS 
       AND A TOTAL OF         28 INNER ITERATIONS.
    ------------------------------------------------

 NO OUTPUT CONTROL FOR STRESS PERIOD   23   TIME STEP    5

 SOLVING FOR HEAD 
                                                   Max.-Head-Change                        Max.-Flux-Residual
  Residual-Control   Outer-Iter.   Inner-Iter.     Column Row Layer    Max.-Head-Change    Column Row Layer    Max.-Flux-Residual            L2-New               L2-Old           Solver-Max-Delh
          0                 1          11            69   21     1      -0.4023853367E+01      70   19    1      -0.7722099049E+05      0.2887111967E+06      0.3576103959E+02     -0.4023853367E+01
          0                 2           9            65    5     2      -0.2667890218E+02      65    5    2      -0.1280041197E+05      0.3177347953E+05      0.2887111967E+06     -0.2667890218E+02
          0                 3           5            65    5     2       0.2241351837E+01      65    5    2       0.1317205214E+04      0.1558762761E+04      0.3177347953E+05      0.2241351837E+01
          0                 4           2            65    5     2       0.9745644032E-01      65    5    2       0.5733127713E+02      0.7880235361E+02      0.1558762761E+04      0.9745644032E-01
          0                 5           2            65    5     2       0.4214911901E-02      65    4    2      -0.4266280973E+01      0.5042680058E+01      0.7880235361E+02      0.4214911901E-02

    ------------------------------------------------
       NWT REQUIRED            5 OUTER ITERATIONS 
       AND A TOTAL OF         29 INNER ITERATIONS.
    ------------------------------------------------

 NO OUTPUT CONTROL FOR STRESS PERIOD   23   TIME STEP    6

 SOLVING FOR HEAD 
                                                   Max.-Head-Change                        Max.-Flux-Residual
  Residual-Control   Outer-Iter.   Inner-Iter.     Column Row Layer    Max.-Head-Change    Column Row Layer    Max.-Flux-Residual            L2-New               L2-Old           Solver-Max-Delh
          0                 1          11            65    5     2      -0.1640678451E+02      51  103    3       0.7090379205E+05      0.2714640917E+06      0.5042680058E+01     -0.1640678451E+02
          0                 2           9            66    4     2      -0.4931892698E+01      51  103    3      -0.7110475732E+04      0.2718294424E+05      0.2714640917E+06     -0.4931892698E+01
          0                 3           5            66    4     2       0.1644552257E+00      24    4    1       0.1426701103E+03      0.1731115100E+03      0.2718294424E+05      0.1644552257E+00
          0                 4           2            66    4     2       0.9536905197E-02      66    4    2       0.4166601333E+01      0.4894437217E+01      0.1731115100E+03      0.9536905197E-02

    ------------------------------------------------
       NWT REQUIRED            4 OUTER ITERATIONS 
       AND A TOTAL OF         27 INNER ITERATIONS.
    ------------------------------------------------

 NO OUTPUT CONTROL FOR STRESS PERIOD   23   TIME STEP    7

 SOLVING FOR HEAD 
                                                   Max.-Head-Change                        Max.-Flux-Residual
  Residual-Control   Outer-Iter.   Inner-Iter.     Column Row Layer    Max.-Head-Change    Column Row Layer    Max.-Flux-Residual            L2-New               L2-Old           Solver-Max-Delh
          0                 1          11            66    4     2      -0.5977732905E+01      51  103    3       0.6907604055E+05      0.2568772343E+06      0.4894437217E+01     -0.5977732905E+01
          0                 2           9            51  103     3      -0.2938516314E+00      51  103    3      -0.6926117750E+04      0.2582503971E+05      0.2568772343E+06     -0.2938516314E+00
          0                 3           5            66    4     2       0.9464043064E-02      66    4    2       0.4100058274E+01      0.1239947614E+02      0.2582503971E+05      0.9464043064E-02

    ------------------------------------------------
       NWT REQUIRED            3 OUTER ITERATIONS 
       AND A TOTAL OF         25 INNER ITERATIONS.
    ------------------------------------------------

 NO OUTPUT CONTROL FOR STRESS PERIOD   23   TIME STEP    8

 SOLVING FOR HEAD 
                                                   Max.-Head-Change                        Max.-Flux-Residual
  Residual-Control   Outer-Iter.   Inner-Iter.     Column Row Layer    Max.-Head-Change    Column Row Layer    Max.-Flux-Residual            L2-New               L2-Old           Solver-Max-Delh
          0                 1          11            51  103     3       0.3142350632E+01      51  103    3       0.6729640442E+05      0.2449117570E+06      0.1239947614E+02      0.3142350632E+01
          0                 2           9            51  103     3      -0.2862495834E+00      70   19    2       0.7926611435E+04      0.2694971623E+05      0.2449117570E+06     -0.2862495834E+00
          0                 3           4            71   19     2       0.1164703446E-02      71   19    3      -0.1192819995E+02      0.1833306231E+02      0.2694971623E+05      0.1164703446E-02

    ------------------------------------------------
       NWT REQUIRED            3 OUTER ITERATIONS 
       AND A TOTAL OF         24 INNER ITERATIONS.
    ------------------------------------------------

 NO OUTPUT CONTROL FOR STRESS PERIOD   23   TIME STEP    9

 SOLVING FOR HEAD 
                                                   Max.-Head-Change                        Max.-Flux-Residual
  Residual-Control   Outer-Iter.   Inner-Iter.     Column Row Layer    Max.-Head-Change    Column Row Layer    Max.-Flux-Residual            L2-New               L2-Old           Solver-Max-Delh
          0                 1          11            51  103     3       0.3061679882E+01      51  103    3       0.6556589400E+05      0.2345164123E+06      0.1833306231E+02      0.3061679882E+01
          0                 2           9            73   14     1      -0.3841434073E+00      51  103    3      -0.6572246581E+04      0.2349395146E+05      0.2345164123E+06     -0.3841434073E+00
          0                 3           4            73   14     1       0.3352628730E-01      73   14    1       0.3144241477E+03      0.3821520403E+03      0.2349395146E+05      0.3352628730E-01
          0                 4           2            25   77     2       0.1967381013E-03      73   14    1       0.9305421151E+00      0.1020988820E+01      0.3821520403E+03      0.1967381013E-03

    ------------------------------------------------
       NWT REQUIRED            4 OUTER ITERATIONS 
       AND A TOTAL OF         26 INNER ITERATIONS.
    ------------------------------------------------

 NO OUTPUT CONTROL FOR STRESS PERIOD   23   TIME STEP   10

 SOLVING FOR HEAD 
                                                   Max.-Head-Change                        Max.-Flux-Residual
  Residual-Control   Outer-Iter.   Inner-Iter.     Column Row Layer    Max.-Head-Change    Column Row Layer    Max.-Flux-Residual            L2-New               L2-Old           Solver-Max-Delh
          0                 1          11            73   14     1      -0.4215391120E+01      51  103    3       0.6388520815E+05      0.2246596669E+06      0.1020988820E+01     -0.4215391120E+01
          0                 2           9            73   14     1       0.3669809803E+00      51  103    3      -0.6402896681E+04      0.2388543801E+05      0.2246596669E+06      0.3669809803E+00
          0                 3           5            13    3     1       0.1847291949E-01      13    4    1       0.5642165284E+03      0.7932274916E+03      0.2388543801E+05      0.1847291949E-01
          0                 4           2            25   77     2       0.1998676224E-03      13    3    1       0.5341900587E+00      0.8552965420E+00      0.7932274916E+03      0.1998676224E-03

    ------------------------------------------------
       NWT REQUIRED            4 OUTER ITERATIONS 
       AND A TOTAL OF         27 INNER ITERATIONS.
    ------------------------------------------------

 NO OUTPUT CONTROL FOR STRESS PERIOD   23   TIME STEP   11

 SOLVING FOR HEAD 
                                                   Max.-Head-Change                        Max.-Flux-Residual
  Residual-Control   Outer-Iter.   Inner-Iter.     Column Row Layer    Max.-Head-Change    Column Row Layer    Max.-Flux-Residual            L2-New               L2-Old           Solver-Max-Delh
          0                 1          10            51  103     3       0.2907583582E+01      51  103    3       0.6225468017E+05      0.2193751141E+06      0.8552965420E+00      0.2907583582E+01
          0                 2           9            51  103     3      -0.2647763124E+00      51  103    3      -0.6238654865E+04      0.2191355010E+05      0.2193751141E+06     -0.2647763124E+00
          0                 3           4            66    7     2       0.9317958778E-03      53  121    2       0.4424474396E+01      0.1262595035E+02      0.2191355010E+05      0.9317958778E-03

    ------------------------------------------------
       NWT REQUIRED            3 OUTER ITERATIONS 
       AND A TOTAL OF         23 INNER ITERATIONS.
    ------------------------------------------------

 OUTPUT CONTROL FOR STRESS PERIOD   23   TIME STEP   12
    SAVE BUDGET
 UBDSV1 SAVING "         STORAGE" ON UNIT  39 AT TIME STEP 12, STRESS PERIOD  23
 UBDSV2 SAVING "   CONSTANT HEAD" ON UNIT  39 AT TIME STEP 12, STRESS PERIOD  23
 UBDSV1 SAVING "FLOW RIGHT FACE " ON UNIT  39 AT TIME STEP 12, STRESS PERIOD  23
 UBDSV1 SAVING "FLOW FRONT FACE " ON UNIT  39 AT TIME STEP 12, STRESS PERIOD  23
 UBDSV1 SAVING "FLOW LOWER FACE " ON UNIT  39 AT TIME STEP 12, STRESS PERIOD  23
 UBDSV3 SAVING "              ET" ON UNIT  39 AT TIME STEP 12, STRESS PERIOD  23
 UBDSV3 SAVING "        RECHARGE" ON UNIT  39 AT TIME STEP 12, STRESS PERIOD  23
1
  VOLUMETRIC BUDGET FOR ENTIRE MODEL AT END OF TIME STEP   12, STRESS PERIOD  23
  ------------------------------------------------------------------------------

     CUMULATIVE VOLUMES      L**3       RATES FOR THIS TIME STEP      L**3/T
     ------------------                 ------------------------

           IN:                                      IN:
           ---                                      ---
             STORAGE = 18526627840.0000               STORAGE =     3627772.2500
       CONSTANT HEAD =  7703499776.0000         CONSTANT HEAD =      842641.1250
               WELLS =   324179520.0000                 WELLS =           0.0000
                  ET =           0.0000                    ET =           0.0000
            RECHARGE =122482089984.0000              RECHARGE =    15504236.0000

            TOTAL IN =149036400640.0000              TOTAL IN =    19974650.0000

          OUT:                                     OUT:
          ----                                     ----
             STORAGE = 28058593280.0000               STORAGE =     3555065.5000
       CONSTANT HEAD = 46572896256.0000         CONSTANT HEAD =     6976171.0000
               WELLS =   329515840.0000                 WELLS =       17567.0000
                  ET = 74075938816.0000                    ET =     9425873.0000
            RECHARGE =           0.0000              RECHARGE =           0.0000

           TOTAL OUT =149036941312.0000             TOTAL OUT =    19974676.0000

            IN - OUT =     -540672.0000              IN - OUT =         -26.0000

 PERCENT DISCREPANCY =          -0.00     PERCENT DISCREPANCY =          -0.00






         TIME SUMMARY AT END OF TIME STEP   12 IN STRESS PERIOD   23
                    SECONDS     MINUTES      HOURS       DAYS        YEARS
                    -----------------------------------------------------------
   TIME STEP LENGTH 2.62800E+06  43800.      730.00      30.417     8.32763E-02
 STRESS PERIOD TIME 3.15360E+07 5.25600E+05  8760.0      365.00     0.99932    
         TOTAL TIME 7.25846E+08 1.20974E+07 2.01624E+05  8401.0      23.001    
1
1
                            STRESS PERIOD NO.   24, LENGTH =   365.0000    
                            -----------------------------------------------

                              NUMBER OF TIME STEPS =    12

                               MULTIPLIER FOR DELT =     1.000

                            INITIAL TIME STEP SIZE =   30.41667    

 WELL NO.  LAYER   ROW   COL   STRESS RATE         
 --------------------------------------------------
      1      1     32     42     -0.3292E+05
      2      2     32     42     -0.1852E+05
      3      1     32     42     -0.1252E+05

      3 WELLS

 REUSING SURF FROM LAST STRESS PERIOD

 REUSING EVTR FROM LAST STRESS PERIOD

 REUSING EXDP FROM LAST STRESS PERIOD



                           RECHARGE
 READING ON UNIT   16 WITH FORMAT: (15F5.0)            


     63 TIME-VARIANT SPECIFIED-HEAD CELLS

 SOLVING FOR HEAD 
                                                   Max.-Head-Change                        Max.-Flux-Residual
  Residual-Control   Outer-Iter.   Inner-Iter.     Column Row Layer    Max.-Head-Change    Column Row Layer    Max.-Flux-Residual            L2-New               L2-Old           Solver-Max-Delh
          0                 1          11            92   77     2       0.7825546459E+02      24   20    1       0.7678188144E+05      0.4971190734E+06      0.1262595035E+02      0.7825546459E+02
          0                 2           9            92   77     2       0.4365307631E+02      88   67    1      -0.6169113173E+06      0.7962465548E+06      0.4971190734E+06      0.4365307631E+02
          0                 3           5            92   77     2      -0.3850831134E+02      92   77    2      -0.1170513284E+07      0.1171918478E+07      0.7962465548E+06     -0.3850831134E+02
          0                 4           4            91   77     2       0.1236206036E+02      92   77    2      -0.1967748737E+05      0.2401907988E+05      0.1171918478E+07      0.1236206036E+02
          0                 5           3            91   77     2       0.1881652098E+01      92   76    2       0.1024198880E+04      0.1429948519E+04      0.2401907988E+05      0.1881652098E+01
          0                 6           3            91   77     2       0.2684074185E+00      91   77    2       0.1414275972E+03      0.1689031091E+03      0.1429948519E+04      0.2684074185E+00
          0                 7           2            91   77     2       0.3832395399E-01      91   77    2       0.2019328833E+02      0.2191515962E+02      0.1689031091E+03      0.3832395399E-01
          0                 8           2            91   77     2       0.5469866640E-02      91   77    2       0.2881903019E+01      0.3009544058E+01      0.2191515962E+02      0.5469866640E-02

    ------------------------------------------------
       NWT REQUIRED            8 OUTER ITERATIONS 
       AND A TOTAL OF         39 INNER ITERATIONS.
    ------------------------------------------------

 NO OUTPUT CONTROL FOR STRESS PERIOD   24   TIME STEP    1

 SOLVING FOR HEAD 
                                                   Max.-Head-Change                        Max.-Flux-Residual
  Residual-Control   Outer-Iter.   Inner-Iter.     Column Row Layer    Max.-Head-Change    Column Row Layer    Max.-Flux-Residual            L2-New               L2-Old           Solver-Max-Delh
          0                 1          11            51  103     3       0.2363128619E+01      51  103    3       0.5049953162E+05      0.3299155790E+06      0.3009544058E+01      0.2363128619E+01
          0                 2           9            51  103     3      -0.2150717366E+00      51  103    3      -0.5056990060E+04      0.3293214105E+05      0.3299155790E+06     -0.2150717366E+00
          0                 3           4            66   23     1       0.9111995422E-02      66   23    1       0.2084882291E+03      0.2145493868E+03      0.3293214105E+05      0.9111995422E-02

    ------------------------------------------------
       NWT REQUIRED            3 OUTER ITERATIONS 
       AND A TOTAL OF         24 INNER ITERATIONS.
    ------------------------------------------------

 NO OUTPUT CONTROL FOR STRESS PERIOD   24   TIME STEP    2

 SOLVING FOR HEAD 
                                                   Max.-Head-Change                        Max.-Flux-Residual
  Residual-Control   Outer-Iter.   Inner-Iter.     Column Row Layer    Max.-Head-Change    Column Row Layer    Max.-Flux-Residual            L2-New               L2-Old           Solver-Max-Delh
          0                 1          11            51  103     3       0.2308430860E+01      51  103    3       0.4931792675E+05      0.2789886631E+06      0.2145493868E+03      0.2308430860E+01
          0                 2           9            51  103     3      -0.2100784777E+00      51  103    3      -0.4938213228E+04      0.2779712092E+05      0.2789886631E+06     -0.2100784777E+00
          0                 3           4            70   19     1       0.3295351830E-02      70   19    2      -0.3417549577E+02      0.5087316628E+02      0.2779712092E+05      0.3295351830E-02

    ------------------------------------------------
       NWT REQUIRED            3 OUTER ITERATIONS 
       AND A TOTAL OF         24 INNER ITERATIONS.
    ------------------------------------------------

 NO OUTPUT CONTROL FOR STRESS PERIOD   24   TIME STEP    3

 SOLVING FOR HEAD 
                                                   Max.-Head-Change                        Max.-Flux-Residual
  Residual-Control   Outer-Iter.   Inner-Iter.     Column Row Layer    Max.-Head-Change    Column Row Layer    Max.-Flux-Residual            L2-New               L2-Old           Solver-Max-Delh
          0                 1          11            70   19     1      -0.4214689240E+01      51  103    3       0.4817775325E+05      0.2546329007E+06      0.5087316628E+02     -0.4214689240E+01
          0                 2           9            70   17     1      -0.8820272980E+00      51  103    3      -0.4823632146E+04      0.2584017203E+05      0.2546329007E+06     -0.8820272980E+00
          0                 3           4            70   17     1       0.7490544027E-01      70   17    1       0.4132691552E+03      0.4185605926E+03      0.2584017203E+05      0.7490544027E-01
          0                 4           2            70   17     1       0.4480870491E-03      70   17    1       0.2415004529E+01      0.2421139361E+01      0.4185605926E+03      0.4480870491E-03

    ------------------------------------------------
       NWT REQUIRED            4 OUTER ITERATIONS 
       AND A TOTAL OF         26 INNER ITERATIONS.
    ------------------------------------------------

 NO OUTPUT CONTROL FOR STRESS PERIOD   24   TIME STEP    4

 SOLVING FOR HEAD 
                                                   Max.-Head-Change                        Max.-Flux-Residual
  Residual-Control   Outer-Iter.   Inner-Iter.     Column Row Layer    Max.-Head-Change    Column Row Layer    Max.-Flux-Residual            L2-New               L2-Old           Solver-Max-Delh
          0                 1          11            51  103     3       0.2204752358E+01      51  103    3       0.4707769630E+05      0.2410510486E+06      0.2421139361E+01      0.2204752358E+01
          0                 2           9            72   15     2       0.3298811472E+00      72   15    2       0.1130623175E+05      0.2665107484E+05      0.2410510486E+06      0.3298811472E+00
          0                 3           4            91   77     2      -0.2434267399E-02      70   19    1       0.3644976992E+01      0.1000003832E+02      0.2665107484E+05     -0.2434267399E-02

    ------------------------------------------------
       NWT REQUIRED            3 OUTER ITERATIONS 
       AND A TOTAL OF         24 INNER ITERATIONS.
    ------------------------------------------------

 NO OUTPUT CONTROL FOR STRESS PERIOD   24   TIME STEP    5

 SOLVING FOR HEAD 
                                                   Max.-Head-Change                        Max.-Flux-Residual
  Residual-Control   Outer-Iter.   Inner-Iter.     Column Row Layer    Max.-Head-Change    Column Row Layer    Max.-Flux-Residual            L2-New               L2-Old           Solver-Max-Delh
          0                 1          11            51  103     3       0.2155641108E+01      51  103    3       0.4601641970E+05      0.2293477742E+06      0.1000003832E+02      0.2155641108E+01
          0                 2           9            51  103     3      -0.1961363489E+00      51  103    3      -0.4606512940E+04      0.2292988096E+05      0.2293477742E+06     -0.1961363489E+00
          0                 3           4            91   77     2      -0.2336360265E-02      70   19    1       0.3337563675E+01      0.9255560223E+01      0.2292988096E+05     -0.2336360265E-02

    ------------------------------------------------
       NWT REQUIRED            3 OUTER ITERATIONS 
       AND A TOTAL OF         24 INNER ITERATIONS.
    ------------------------------------------------

 NO OUTPUT CONTROL FOR STRESS PERIOD   24   TIME STEP    6

 SOLVING FOR HEAD 
                                                   Max.-Head-Change                        Max.-Flux-Residual
  Residual-Control   Outer-Iter.   Inner-Iter.     Column Row Layer    Max.-Head-Change    Column Row Layer    Max.-Flux-Residual            L2-New               L2-Old           Solver-Max-Delh
          0                 1          11            51  103     3       0.2108259958E+01      51  103    3       0.4499254540E+05      0.2199339663E+06      0.9255560223E+01      0.2108259958E+01
          0                 2           9            51  103     3      -0.1918144989E+00      51  103    3      -0.4503695887E+04      0.2199829142E+05      0.2199339663E+06     -0.1918144989E+00
          0                 3           4            91   77     2      -0.2239856419E-02      85   78    2      -0.1365057942E+02      0.1622608090E+02      0.2199829142E+05     -0.2239856419E-02

    ------------------------------------------------
       NWT REQUIRED            3 OUTER ITERATIONS 
       AND A TOTAL OF         24 INNER ITERATIONS.
    ------------------------------------------------

 NO OUTPUT CONTROL FOR STRESS PERIOD   24   TIME STEP    7

 SOLVING FOR HEAD 
                                                   Max.-Head-Change                        Max.-Flux-Residual
  Residual-Control   Outer-Iter.   Inner-Iter.     Column Row Layer    Max.-Head-Change    Column Row Layer    Max.-Flux-Residual            L2-New               L2-Old           Solver-Max-Delh
          0                 1          11            51  103     3       0.2062542913E+01      51  103    3       0.4400470134E+05      0.2123908687E+06      0.1622608090E+02      0.2062542913E+01
          0                 2           9            51  103     3      -0.1876451886E+00      51  103    3      -0.4404519472E+04      0.2140396790E+05      0.2123908687E+06     -0.1876451886E+00
          0                 3           4            91   77     2      -0.2146726609E-02      70   19    1       0.2836758062E+01      0.8454795483E+01      0.2140396790E+05     -0.2146726609E-02

    ------------------------------------------------
       NWT REQUIRED            3 OUTER ITERATIONS 
       AND A TOTAL OF         24 INNER ITERATIONS.
    ------------------------------------------------

 NO OUTPUT CONTROL FOR STRESS PERIOD   24   TIME STEP    8

 SOLVING FOR HEAD 
                                                   Max.-Head-Change                        Max.-Flux-Residual
  Residual-Control   Outer-Iter.   Inner-Iter.     Column Row Layer    Max.-Head-Change    Column Row Layer    Max.-Flux-Residual            L2-New               L2-Old           Solver-Max-Delh
          0                 1          11            51  103     3       0.2018423588E+01      51  103    3       0.4305149603E+05      0.2061029099E+06      0.8454795483E+01      0.2018423588E+01
          0                 2           9            51  103     3      -0.1836222684E+00      51  103    3      -0.4308841386E+04      0.2097761571E+05      0.2061029099E+06     -0.1836222684E+00
          0                 3           4            91   77     2      -0.2057951830E-02      70   19    1       0.2631354261E+01      0.8232385001E+01      0.2097761571E+05     -0.2057951830E-02

    ------------------------------------------------
       NWT REQUIRED            3 OUTER ITERATIONS 
       AND A TOTAL OF         24 INNER ITERATIONS.
    ------------------------------------------------

 NO OUTPUT CONTROL FOR STRESS PERIOD   24   TIME STEP    9

 SOLVING FOR HEAD 
                                                   Max.-Head-Change                        Max.-Flux-Residual
  Residual-Control   Outer-Iter.   Inner-Iter.     Column Row Layer    Max.-Head-Change    Column Row Layer    Max.-Flux-Residual            L2-New               L2-Old           Solver-Max-Delh
          0                 1          11            51  103     3       0.1975838360E+01      51  103    3       0.4213158833E+05      0.2007227789E+06      0.8232385001E+01      0.1975838360E+01
          0                 2           9            51  103     3      -0.1797398789E+00      51  103    3      -0.4216524594E+04      0.2006921962E+05      0.2007227789E+06     -0.1797398789E+00
          0                 3           4            31   37     1      -0.8032161585E-02      31   37    1      -0.1928023339E+02      0.2088011652E+02      0.2006921962E+05     -0.8032161585E-02

    ------------------------------------------------
       NWT REQUIRED            3 OUTER ITERATIONS 
       AND A TOTAL OF         24 INNER ITERATIONS.
    ------------------------------------------------

 NO OUTPUT CONTROL FOR STRESS PERIOD   24   TIME STEP   10

 SOLVING FOR HEAD 
                                                   Max.-Head-Change                        Max.-Flux-Residual
  Residual-Control   Outer-Iter.   Inner-Iter.     Column Row Layer    Max.-Head-Change    Column Row Layer    Max.-Flux-Residual            L2-New               L2-Old           Solver-Max-Delh
          0                 1          11            51  103     3       0.1934722733E+01      51  103    3       0.4124361087E+05      0.1960246961E+06      0.2088011652E+02      0.1934722733E+01
          0                 2           9            51  103     3      -0.1759920429E+00      51  103    3      -0.4127429647E+04      0.1991271519E+05      0.1960246961E+06     -0.1759920429E+00
          0                 3           4            91   77     2      -0.1895067592E-02      70   19    1       0.2288531054E+01      0.7838100725E+01      0.1991271519E+05     -0.1895067592E-02

    ------------------------------------------------
       NWT REQUIRED            3 OUTER ITERATIONS 
       AND A TOTAL OF         24 INNER ITERATIONS.
    ------------------------------------------------

 NO OUTPUT CONTROL FOR STRESS PERIOD   24   TIME STEP   11

 SOLVING FOR HEAD 
                                                   Max.-Head-Change                        Max.-Flux-Residual
  Residual-Control   Outer-Iter.   Inner-Iter.     Column Row Layer    Max.-Head-Change    Column Row Layer    Max.-Flux-Residual            L2-New               L2-Old           Solver-Max-Delh
          0                 1          10            51  103     3       0.1895014444E+01      51  103    3       0.4038623761E+05      0.1918603364E+06      0.7838100725E+01      0.1895014444E+01
          0                 2           9            51  103     3      -0.1723730242E+00      51  103    3      -0.4041421448E+04      0.1922080162E+05      0.1918603364E+06     -0.1723730242E+00
          0                 3           4            31   37     2      -0.7726999861E-02      31   37    2      -0.1096662754E+03      0.1191815575E+03      0.1922080162E+05     -0.7726999861E-02

    ------------------------------------------------
       NWT REQUIRED            3 OUTER ITERATIONS 
       AND A TOTAL OF         23 INNER ITERATIONS.
    ------------------------------------------------

 OUTPUT CONTROL FOR STRESS PERIOD   24   TIME STEP   12
    SAVE BUDGET
 UBDSV1 SAVING "         STORAGE" ON UNIT  39 AT TIME STEP 12, STRESS PERIOD  24
 UBDSV2 SAVING "   CONSTANT HEAD" ON UNIT  39 AT TIME STEP 12, STRESS PERIOD  24
 UBDSV1 SAVING "FLOW RIGHT FACE " ON UNIT  39 AT TIME STEP 12, STRESS PERIOD  24
 UBDSV1 SAVING "FLOW FRONT FACE " ON UNIT  39 AT TIME STEP 12, STRESS PERIOD  24
 UBDSV1 SAVING "FLOW LOWER FACE " ON UNIT  39 AT TIME STEP 12, STRESS PERIOD  24
 UBDSV3 SAVING "              ET" ON UNIT  39 AT TIME STEP 12, STRESS PERIOD  24
 UBDSV3 SAVING "        RECHARGE" ON UNIT  39 AT TIME STEP 12, STRESS PERIOD  24

 INTERPOLATION FOR HEAD OBS# 7909, ID 1427-25-27   CHANGED BECAUSE AT LEAST ONE
 NEIGHBORING CELL REQUIRED FOR INTERPOLATION IS DRY OR INACTIVE (OBS2BAS7SE)
1
  VOLUMETRIC BUDGET FOR ENTIRE MODEL AT END OF TIME STEP   12, STRESS PERIOD  24
  ------------------------------------------------------------------------------

     CUMULATIVE VOLUMES      L**3       RATES FOR THIS TIME STEP      L**3/T
     ------------------                 ------------------------

           IN:                                      IN:
           ---                                      ---
             STORAGE = 19244232704.0000               STORAGE =     1590448.0000
       CONSTANT HEAD =  8007602688.0000         CONSTANT HEAD =      834886.1250
               WELLS =   324179520.0000                 WELLS =           0.0000
                  ET =           0.0000                    ET =           0.0000
            RECHARGE =129683841024.0000              RECHARGE =    19730916.0000

            TOTAL IN =157259857920.0000              TOTAL IN =    22156250.0000

          OUT:                                     OUT:
          ----                                     ----
             STORAGE = 30038175744.0000               STORAGE =     4758925.0000
       CONSTANT HEAD = 49156059136.0000         CONSTANT HEAD =     7118530.0000
               WELLS =   352858816.0000                 WELLS =       63953.0000
                  ET = 77713358848.0000                    ET =    10214869.0000
            RECHARGE =           0.0000              RECHARGE =           0.0000

           TOTAL OUT =157260447744.0000             TOTAL OUT =    22156276.0000

            IN - OUT =     -589824.0000              IN - OUT =         -26.0000

 PERCENT DISCREPANCY =          -0.00     PERCENT DISCREPANCY =          -0.00






         TIME SUMMARY AT END OF TIME STEP   12 IN STRESS PERIOD   24
                    SECONDS     MINUTES      HOURS       DAYS        YEARS
                    -----------------------------------------------------------
   TIME STEP LENGTH 2.62800E+06  43800.      730.00      30.417     8.32763E-02
 STRESS PERIOD TIME 3.15360E+07 5.25600E+05  8760.0      365.00     0.99932    
         TOTAL TIME 7.57382E+08 1.26230E+07 2.10384E+05  8766.0      24.000    
1
1
                            STRESS PERIOD NO.   25, LENGTH =   366.0000    
                            -----------------------------------------------

                              NUMBER OF TIME STEPS =    12

                               MULTIPLIER FOR DELT =     1.000

                            INITIAL TIME STEP SIZE =   30.50000    

 WELL NO.  LAYER   ROW   COL   STRESS RATE         
 --------------------------------------------------
      1      1     32     43     -0.1552E+05
      2      2     32     43      -8354.    

      2 WELLS

 REUSING SURF FROM LAST STRESS PERIOD

 REUSING EVTR FROM LAST STRESS PERIOD

 REUSING EXDP FROM LAST STRESS PERIOD



                           RECHARGE
 READING ON UNIT   16 WITH FORMAT: (15F5.0)            


     63 TIME-VARIANT SPECIFIED-HEAD CELLS

 SOLVING FOR HEAD 
                                                   Max.-Head-Change                        Max.-Flux-Residual
  Residual-Control   Outer-Iter.   Inner-Iter.     Column Row Layer    Max.-Head-Change    Column Row Layer    Max.-Flux-Residual            L2-New               L2-Old           Solver-Max-Delh
          0                 1          11            65    2     2       0.9176319216E+02      70   19    1       0.1467887755E+06      0.6693136228E+06      0.1191815575E+03      0.9176319216E+02
          0                 2          10            65    5     2      -0.9992129020E+01      65    5    2      -0.2632488591E+06      0.3948706369E+06      0.6693136228E+06     -0.9992129020E+01
          0                 3           5            66    5     2       0.6189278298E+00      65    5    2      -0.1373264578E+04      0.1717337017E+04      0.3948706369E+06      0.6189278298E+00
          0                 4           3            66    5     2       0.9343457265E-01      65    4    2       0.4381340184E+02      0.7337012512E+02      0.1717337017E+04      0.9343457265E-01
          0                 5           2            66    5     2       0.1405548816E-01      66    5    2       0.5841150512E+01      0.8342204702E+01      0.7337012512E+02      0.1405548816E-01
          0                 6           2            66    5     2       0.2113106264E-02      66    5    2       0.8778619624E+00      0.1059439064E+01      0.8342204702E+01      0.2113106264E-02

    ------------------------------------------------
       NWT REQUIRED            6 OUTER ITERATIONS 
       AND A TOTAL OF         33 INNER ITERATIONS.
    ------------------------------------------------

 NO OUTPUT CONTROL FOR STRESS PERIOD   25   TIME STEP    1

 SOLVING FOR HEAD 
                                                   Max.-Head-Change                        Max.-Flux-Residual
  Residual-Control   Outer-Iter.   Inner-Iter.     Column Row Layer    Max.-Head-Change    Column Row Layer    Max.-Flux-Residual            L2-New               L2-Old           Solver-Max-Delh
          0                 1          11            71   16     1       0.3237935194E+01      72   15    1       0.9306914306E+05      0.4825741420E+06      0.1059439064E+01      0.3237935194E+01
          0                 2          10            65    6     2      -0.3316109961E+00      72   15    1      -0.9394252280E+04      0.4924661195E+05      0.4825741420E+06     -0.3316109961E+00
          0                 3           5            71   20     2      -0.4908464467E-02      71   20    2      -0.2044772805E+02      0.4067020039E+02      0.4924661195E+05     -0.4908464467E-02

    ------------------------------------------------
       NWT REQUIRED            3 OUTER ITERATIONS 
       AND A TOTAL OF         26 INNER ITERATIONS.
    ------------------------------------------------

 NO OUTPUT CONTROL FOR STRESS PERIOD   25   TIME STEP    2

 SOLVING FOR HEAD 
                                                   Max.-Head-Change                        Max.-Flux-Residual
  Residual-Control   Outer-Iter.   Inner-Iter.     Column Row Layer    Max.-Head-Change    Column Row Layer    Max.-Flux-Residual            L2-New               L2-Old           Solver-Max-Delh
          0                 1          11            71   16     1       0.3039567293E+01      71   16    1       0.8068048506E+05      0.4207997496E+06      0.4067020039E+02      0.3039567293E+01
          0                 2          10            69   21     1      -0.7007522863E+00      69   21    1      -0.2388046121E+05      0.4850371739E+05      0.4207997496E+06     -0.7007522863E+00
          0                 3           5            91   77     2      -0.3242424385E-02      27   60    3       0.2608249537E+02      0.3782175043E+02      0.4850371739E+05     -0.3242424385E-02

    ------------------------------------------------
       NWT REQUIRED            3 OUTER ITERATIONS 
       AND A TOTAL OF         26 INNER ITERATIONS.
    ------------------------------------------------

 NO OUTPUT CONTROL FOR STRESS PERIOD   25   TIME STEP    3

 SOLVING FOR HEAD 
                                                   Max.-Head-Change                        Max.-Flux-Residual
  Residual-Control   Outer-Iter.   Inner-Iter.     Column Row Layer    Max.-Head-Change    Column Row Layer    Max.-Flux-Residual            L2-New               L2-Old           Solver-Max-Delh
          0                 1          11            71   16     1       0.2855298943E+01      71   16    1       0.7574418361E+05      0.3856559548E+06      0.3782175043E+02      0.2855298943E+01
          0                 2           9            72   15     2       0.1170570231E+01      73   14    1      -0.2099652113E+05      0.4537229387E+05      0.3856559548E+06      0.1170570231E+01
          0                 3           5            72   15     2      -0.1063174147E+00      72   15    2      -0.1123512568E+04      0.1321093217E+04      0.4537229387E+05     -0.1063174147E+00
          0                 4           1            25   77     2       0.2936460918E-03      91   77    2      -0.8543611411E-01      0.1582196803E+00      0.1321093217E+04      0.2936460918E-03

    ------------------------------------------------
       NWT REQUIRED            4 OUTER ITERATIONS 
       AND A TOTAL OF         26 INNER ITERATIONS.
    ------------------------------------------------

 NO OUTPUT CONTROL FOR STRESS PERIOD   25   TIME STEP    4

 SOLVING FOR HEAD 
                                                   Max.-Head-Change                        Max.-Flux-Residual
  Residual-Control   Outer-Iter.   Inner-Iter.     Column Row Layer    Max.-Head-Change    Column Row Layer    Max.-Flux-Residual            L2-New               L2-Old           Solver-Max-Delh
          0                 1          11            72   15     2       0.4856272547E+01      71   16    1       0.7118564981E+05      0.3613683946E+06      0.1582196803E+00      0.4856272547E+01
          0                 2           9            72   15     2      -0.4445682279E+00      71   16    1      -0.7161974091E+04      0.3638579200E+05      0.3613683946E+06     -0.4445682279E+00
          0                 3           5            69   23     3      -0.1777514405E-01      69   23    3      -0.1746368398E+03      0.1820411235E+03      0.3638579200E+05     -0.1777514405E-01
          0                 4           1            25   77     2       0.2952702729E-03      91   77    2      -0.8079656668E-01      0.1535907597E+00      0.1820411235E+03      0.2952702729E-03

    ------------------------------------------------
       NWT REQUIRED            4 OUTER ITERATIONS 
       AND A TOTAL OF         26 INNER ITERATIONS.
    ------------------------------------------------

 NO OUTPUT CONTROL FOR STRESS PERIOD   25   TIME STEP    5

 SOLVING FOR HEAD 
                                                   Max.-Head-Change                        Max.-Flux-Residual
  Residual-Control   Outer-Iter.   Inner-Iter.     Column Row Layer    Max.-Head-Change    Column Row Layer    Max.-Flux-Residual            L2-New               L2-Old           Solver-Max-Delh
          0                 1          11            72   15     1       0.2905660286E+01      72   15    1       0.7738624891E+05      0.3449409593E+06      0.1535907597E+00      0.2905660286E+01
          0                 2           9            72   15     1      -0.2657244069E+00      72   15    1      -0.7798601810E+04      0.3467612900E+05      0.3449409593E+06     -0.2657244069E+00
          0                 3           5            91   77     2      -0.2739286184E-02      57   79    2      -0.5362034120E+01      0.1601520211E+02      0.3467612900E+05     -0.2739286184E-02

    ------------------------------------------------
       NWT REQUIRED            3 OUTER ITERATIONS 
       AND A TOTAL OF         25 INNER ITERATIONS.
    ------------------------------------------------

 NO OUTPUT CONTROL FOR STRESS PERIOD   25   TIME STEP    6

 SOLVING FOR HEAD 
                                                   Max.-Head-Change                        Max.-Flux-Residual
  Residual-Control   Outer-Iter.   Inner-Iter.     Column Row Layer    Max.-Head-Change    Column Row Layer    Max.-Flux-Residual            L2-New               L2-Old           Solver-Max-Delh
          0                 1          11            72   15     1       0.2719992055E+01      72   15    1       0.7240049071E+05      0.3305577958E+06      0.1601520211E+02      0.2719992055E+01
          0                 2           9            71   20     2      -0.3621921059E+00      71   20    2      -0.1124109576E+05      0.3495610798E+05      0.3305577958E+06     -0.3621921059E+00
          0                 3           5            66   23     2      -0.1067629000E-01      66   23    2      -0.3065405827E+03      0.3780325145E+03      0.3495610798E+05     -0.1067629000E-01
          0                 4           1            25   77     2       0.3065333320E-03      63   15    3       0.1627379358E+00      0.2385210289E+00      0.3780325145E+03      0.3065333320E-03

    ------------------------------------------------
       NWT REQUIRED            4 OUTER ITERATIONS 
       AND A TOTAL OF         26 INNER ITERATIONS.
    ------------------------------------------------

 NO OUTPUT CONTROL FOR STRESS PERIOD   25   TIME STEP    7

 SOLVING FOR HEAD 
                                                   Max.-Head-Change                        Max.-Flux-Residual
  Residual-Control   Outer-Iter.   Inner-Iter.     Column Row Layer    Max.-Head-Change    Column Row Layer    Max.-Flux-Residual            L2-New               L2-Old           Solver-Max-Delh
          0                 1          11            70   19     2       0.5533695457E+01      72   15    1       0.6778595739E+05      0.3187137087E+06      0.2385210289E+00      0.5533695457E+01
          0                 2           9            71   19     2       0.1614620194E+01      70   17    2       0.1197734207E+05      0.3629594108E+05      0.3187137087E+06      0.1614620194E+01
          0                 3           5            71   19     2      -0.1346326681E+00      70   17    2      -0.1182508816E+04      0.1380623063E+04      0.3629594108E+05     -0.1346326681E+00
          0                 4           2            71   19     2      -0.1011524931E-02      71   19    2      -0.3851356415E+01      0.4119294025E+01      0.1380623063E+04     -0.1011524931E-02

    ------------------------------------------------
       NWT REQUIRED            4 OUTER ITERATIONS 
       AND A TOTAL OF         27 INNER ITERATIONS.
    ------------------------------------------------

 NO OUTPUT CONTROL FOR STRESS PERIOD   25   TIME STEP    8

 SOLVING FOR HEAD 
                                                   Max.-Head-Change                        Max.-Flux-Residual
  Residual-Control   Outer-Iter.   Inner-Iter.     Column Row Layer    Max.-Head-Change    Column Row Layer    Max.-Flux-Residual            L2-New               L2-Old           Solver-Max-Delh
          0                 1          11            70   19     1       0.2449275367E+01      70   19    1       0.7123959808E+05      0.3126988363E+06      0.4119294025E+01      0.2449275367E+01
          0                 2           9            70   19     1      -0.2233560797E+00      70   19    1      -0.7161450220E+04      0.3171664007E+05      0.3126988363E+06     -0.2233560797E+00
          0                 3           5            91   77     2      -0.2352056620E-02      73   15    1      -0.4052966878E+01      0.1446673790E+02      0.3171664007E+05     -0.2352056620E-02

    ------------------------------------------------
       NWT REQUIRED            3 OUTER ITERATIONS 
       AND A TOTAL OF         25 INNER ITERATIONS.
    ------------------------------------------------

 NO OUTPUT CONTROL FOR STRESS PERIOD   25   TIME STEP    9

 SOLVING FOR HEAD 
                                                   Max.-Head-Change                        Max.-Flux-Residual
  Residual-Control   Outer-Iter.   Inner-Iter.     Column Row Layer    Max.-Head-Change    Column Row Layer    Max.-Flux-Residual            L2-New               L2-Old           Solver-Max-Delh
          0                 1          11            70   19     1       0.2273675182E+01      70   19    1       0.6613146598E+05      0.3045495508E+06      0.1446673790E+02      0.2273675182E+01
          0                 2           9            64   29     1      -0.2951118686E+00      64   29    1      -0.1624170950E+05      0.3467758534E+05      0.3045495508E+06     -0.2951118686E+00
          0                 3           6            71   19     2      -0.6689203358E-01      71   19    2      -0.2455700804E+03      0.3684158698E+03      0.3467758534E+05     -0.6689203358E-01
          0                 4           2            71   19     2      -0.4956310726E-03      71   19    2      -0.1819398460E+01      0.1835527445E+01      0.3684158698E+03     -0.4956310726E-03

    ------------------------------------------------
       NWT REQUIRED            4 OUTER ITERATIONS 
       AND A TOTAL OF         28 INNER ITERATIONS.
    ------------------------------------------------

 NO OUTPUT CONTROL FOR STRESS PERIOD   25   TIME STEP   10

 INTERPOLATION FOR HEAD OBS# 7916, ID 1705-25-328  CHANGED BECAUSE AT LEAST ONE
 NEIGHBORING CELL REQUIRED FOR INTERPOLATION IS DRY OR INACTIVE (OBS2BAS7SE)

 INTERPOLATION FOR HEAD OBS# 7919, ID 1066-25-335  CHANGED BECAUSE AT LEAST ONE
 NEIGHBORING CELL REQUIRED FOR INTERPOLATION IS DRY OR INACTIVE (OBS2BAS7SE)

 SOLVING FOR HEAD 
                                                   Max.-Head-Change                        Max.-Flux-Residual
  Residual-Control   Outer-Iter.   Inner-Iter.     Column Row Layer    Max.-Head-Change    Column Row Layer    Max.-Flux-Residual            L2-New               L2-Old           Solver-Max-Delh
          0                 1          11            72   15     1       0.2135262828E+01      70   19    1       0.6139507038E+05      0.2968901620E+06      0.1835527445E+01      0.2135262828E+01
          0                 2           9            71   19     2      -0.7664256796E+00      71   19    2      -0.2361409807E+05      0.3803085353E+05      0.2968901620E+06     -0.7664256796E+00
          0                 3           5            91   77     2      -0.2143059386E-02      52  121    2       0.2145290291E+02      0.3669000728E+02      0.3803085353E+05     -0.2143059386E-02

    ------------------------------------------------
       NWT REQUIRED            3 OUTER ITERATIONS 
       AND A TOTAL OF         25 INNER ITERATIONS.
    ------------------------------------------------

 NO OUTPUT CONTROL FOR STRESS PERIOD   25   TIME STEP   11

 INTERPOLATION FOR HEAD OBS# 7898, ID 3200-25-336  CHANGED BECAUSE AT LEAST ONE
 NEIGHBORING CELL REQUIRED FOR INTERPOLATION IS DRY OR INACTIVE (OBS2BAS7SE)

 SOLVING FOR HEAD 
                                                   Max.-Head-Change                        Max.-Flux-Residual
  Residual-Control   Outer-Iter.   Inner-Iter.     Column Row Layer    Max.-Head-Change    Column Row Layer    Max.-Flux-Residual            L2-New               L2-Old           Solver-Max-Delh
          0                 1          11            72   15     1       0.2021469894E+01      70   19    1       0.5663807622E+05      0.2900234371E+06      0.3669000728E+02      0.2021469894E+01
          0                 2           9            73   14     2      -0.2676894828E+00      70   19    1      -0.5682028064E+04      0.2900543141E+05      0.2900234371E+06     -0.2676894828E+00
          0                 3           6            73   14     2       0.1479558640E+00      73   14    2       0.5833236749E+04      0.5833384695E+04      0.2900543141E+05      0.1479558640E+00
          0                 4           4            73   14     2       0.1331134735E-01      73   14    2       0.5247727608E+03      0.5247839830E+03      0.5833384695E+04      0.1331134735E-01
          0                 5           3            73   14     2       0.1196801557E-02      73   14    2       0.4717532294E+02      0.4717632255E+02      0.5247839830E+03      0.1196801557E-02

    ------------------------------------------------
       NWT REQUIRED            5 OUTER ITERATIONS 
       AND A TOTAL OF         33 INNER ITERATIONS.
    ------------------------------------------------

 OUTPUT CONTROL FOR STRESS PERIOD   25   TIME STEP   12
    SAVE BUDGET
 UBDSV1 SAVING "         STORAGE" ON UNIT  39 AT TIME STEP 12, STRESS PERIOD  25
 UBDSV2 SAVING "   CONSTANT HEAD" ON UNIT  39 AT TIME STEP 12, STRESS PERIOD  25
 UBDSV1 SAVING "FLOW RIGHT FACE " ON UNIT  39 AT TIME STEP 12, STRESS PERIOD  25
 UBDSV1 SAVING "FLOW FRONT FACE " ON UNIT  39 AT TIME STEP 12, STRESS PERIOD  25
 UBDSV1 SAVING "FLOW LOWER FACE " ON UNIT  39 AT TIME STEP 12, STRESS PERIOD  25
 UBDSV3 SAVING "              ET" ON UNIT  39 AT TIME STEP 12, STRESS PERIOD  25
 UBDSV3 SAVING "        RECHARGE" ON UNIT  39 AT TIME STEP 12, STRESS PERIOD  25

 INTERPOLATION FOR HEAD OBS# 7966, ID 2928-26-18   CHANGED BECAUSE AT LEAST ONE
 NEIGHBORING CELL REQUIRED FOR INTERPOLATION IS DRY OR INACTIVE (OBS2BAS7SE)

 INTERPOLATION FOR HEAD OBS# 7970, ID 2789-26-18   CHANGED BECAUSE AT LEAST ONE
 NEIGHBORING CELL REQUIRED FOR INTERPOLATION IS DRY OR INACTIVE (OBS2BAS7SE)

 INTERPOLATION FOR HEAD OBS# 7983, ID 2931-26-22   CHANGED BECAUSE AT LEAST ONE
 NEIGHBORING CELL REQUIRED FOR INTERPOLATION IS DRY OR INACTIVE (OBS2BAS7SE)

 INTERPOLATION FOR HEAD OBS# 7993, ID 2303-26-1    CHANGED BECAUSE AT LEAST ONE
 NEIGHBORING CELL REQUIRED FOR INTERPOLATION IS DRY OR INACTIVE (OBS2BAS7SE)

 INTERPOLATION FOR HEAD OBS# 8004, ID 1930-26-14   CHANGED BECAUSE AT LEAST ONE
 NEIGHBORING CELL REQUIRED FOR INTERPOLATION IS DRY OR INACTIVE (OBS2BAS7SE)

 INTERPOLATION FOR HEAD OBS# 8023, ID 1428-26-1    CHANGED BECAUSE AT LEAST ONE
 NEIGHBORING CELL REQUIRED FOR INTERPOLATION IS DRY OR INACTIVE (OBS2BAS7SE)

 INTERPOLATION FOR HEAD OBS# 8107, ID 846-26-13    CHANGED BECAUSE AT LEAST ONE
 NEIGHBORING CELL REQUIRED FOR INTERPOLATION IS DRY OR INACTIVE (OBS2BAS7SE)
1
  VOLUMETRIC BUDGET FOR ENTIRE MODEL AT END OF TIME STEP   12, STRESS PERIOD  25
  ------------------------------------------------------------------------------

     CUMULATIVE VOLUMES      L**3       RATES FOR THIS TIME STEP      L**3/T
     ------------------                 ------------------------

           IN:                                      IN:
           ---                                      ---
             STORAGE = 19719487488.0000               STORAGE =      936715.0000
       CONSTANT HEAD =  8305920512.0000         CONSTANT HEAD =      818541.1875
               WELLS =   324179520.0000                 WELLS =           0.0000
                  ET =           0.0000                    ET =           0.0000
            RECHARGE =138978295808.0000              RECHARGE =    25394696.0000

            TOTAL IN =167327891456.0000              TOTAL IN =    27149952.0000

          OUT:                                     OUT:
          ----                                     ----
             STORAGE = 33639929856.0000               STORAGE =     9292750.0000
       CONSTANT HEAD = 51776749568.0000         CONSTANT HEAD =     7187716.0000
               WELLS =   361594816.0000                 WELLS =       23869.0000
                  ET = 81550229504.0000                    ET =    10645639.0000
            RECHARGE =           0.0000              RECHARGE =           0.0000

           TOTAL OUT =167328514048.0000             TOTAL OUT =    27149974.0000

            IN - OUT =     -622592.0000              IN - OUT =         -22.0000

 PERCENT DISCREPANCY =          -0.00     PERCENT DISCREPANCY =          -0.00






         TIME SUMMARY AT END OF TIME STEP   12 IN STRESS PERIOD   25
                    SECONDS     MINUTES      HOURS       DAYS        YEARS
                    -----------------------------------------------------------
   TIME STEP LENGTH 2.63520E+06  43920.      732.00      30.500     8.35044E-02
 STRESS PERIOD TIME 3.16224E+07 5.27040E+05  8784.0      366.00      1.0021    
         TOTAL TIME 7.89004E+08 1.31501E+07 2.19168E+05  9132.0      25.002    
1
1
                            STRESS PERIOD NO.   26, LENGTH =   365.0000    
                            -----------------------------------------------

                              NUMBER OF TIME STEPS =    12

                               MULTIPLIER FOR DELT =     1.000

                            INITIAL TIME STEP SIZE =   30.41667    

 WELL NO.  LAYER   ROW   COL   STRESS RATE         
 --------------------------------------------------
      1      2     32     42     -0.1041E+05

      1 WELL 

 REUSING SURF FROM LAST STRESS PERIOD

 REUSING EVTR FROM LAST STRESS PERIOD

 REUSING EXDP FROM LAST STRESS PERIOD



                           RECHARGE
 READING ON UNIT   16 WITH FORMAT: (15F5.0)            


     63 TIME-VARIANT SPECIFIED-HEAD CELLS

 SOLVING FOR HEAD 
                                                   Max.-Head-Change                        Max.-Flux-Residual
  Residual-Control   Outer-Iter.   Inner-Iter.     Column Row Layer    Max.-Head-Change    Column Row Layer    Max.-Flux-Residual            L2-New               L2-Old           Solver-Max-Delh
          0                 1          11            65    2     2      -0.6168864839E+02      23   46    2       0.1311057229E+06      0.5475753332E+06      0.4717632255E+02     -0.6168864839E+02
          0                 2          10            65    6     2      -0.1060495643E+02      23   46    2      -0.1668377952E+05      0.5661981508E+05      0.5475753332E+06     -0.1060495643E+02
          0                 3           6            65    3     2      -0.1354851390E+01      65    3    2      -0.3876519223E+05      0.3881052354E+05      0.5661981508E+05     -0.1354851390E+01
          0                 4           4            65    3     2      -0.1231274157E+00      65    3    2      -0.3517714311E+04      0.3518968894E+04      0.3881052354E+05     -0.1231274157E+00
          0                 5           3            65    3     2      -0.1108060635E-01      65    3    2      -0.3164884354E+03      0.3166080803E+03      0.3518968894E+04     -0.1108060635E-01
          0                 6           2            65    3     2      -0.9952248296E-03      65    3    2      -0.2842262771E+02      0.2843676124E+02      0.3166080803E+03     -0.9952248296E-03

    ------------------------------------------------
       NWT REQUIRED            6 OUTER ITERATIONS 
       AND A TOTAL OF         36 INNER ITERATIONS.
    ------------------------------------------------

 NO OUTPUT CONTROL FOR STRESS PERIOD   26   TIME STEP    1

 INTERPOLATION FOR HEAD OBS# 8119, ID 1168-26-35   CHANGED BECAUSE AT LEAST ONE
 NEIGHBORING CELL REQUIRED FOR INTERPOLATION IS DRY OR INACTIVE (OBS2BAS7SE)

 SOLVING FOR HEAD 
                                                   Max.-Head-Change                        Max.-Flux-Residual
  Residual-Control   Outer-Iter.   Inner-Iter.     Column Row Layer    Max.-Head-Change    Column Row Layer    Max.-Flux-Residual            L2-New               L2-Old           Solver-Max-Delh
          0                 1          11            65    6     2      -0.1746285852E+02      23   46    2       0.7745780751E+05      0.3945514538E+06      0.2843676124E+02     -0.1746285852E+02
          0                 2          10            65    3     2      -0.2399022628E+02      65    3    2      -0.9638346470E+04      0.4115617049E+05      0.3945514538E+06     -0.2399022628E+02
          0                 3           5            65    3     2       0.1175435116E+01      65    3    3      -0.9241500387E+03      0.1117508268E+04      0.4115617049E+05      0.1175435116E+01
          0                 4           2            65    3     2       0.6098579783E-01      65    3    2       0.2979383802E+02      0.3364505939E+02      0.1117508268E+04      0.6098579783E-01
          0                 5           2            65    3     2       0.3155744711E-02      65    3    3       0.2362173826E+01      0.3035004375E+01      0.3364505939E+02      0.3155744711E-02

    ------------------------------------------------
       NWT REQUIRED            5 OUTER ITERATIONS 
       AND A TOTAL OF         30 INNER ITERATIONS.
    ------------------------------------------------

 NO OUTPUT CONTROL FOR STRESS PERIOD   26   TIME STEP    2

 INTERPOLATION FOR HEAD OBS# 8167, ID 683-26-91    CHANGED BECAUSE AT LEAST ONE
 NEIGHBORING CELL REQUIRED FOR INTERPOLATION IS DRY OR INACTIVE (OBS2BAS7SE)

 INTERPOLATION FOR HEAD OBS# 8171, ID 451-26-85    CHANGED BECAUSE AT LEAST ONE
 NEIGHBORING CELL REQUIRED FOR INTERPOLATION IS DRY OR INACTIVE (OBS2BAS7SE)

 SOLVING FOR HEAD 
                                                   Max.-Head-Change                        Max.-Flux-Residual
  Residual-Control   Outer-Iter.   Inner-Iter.     Column Row Layer    Max.-Head-Change    Column Row Layer    Max.-Flux-Residual            L2-New               L2-Old           Solver-Max-Delh
          0                 1          11            23   46     2       0.2044135966E+01      89   66    1       0.6594591116E+05      0.3408076894E+06      0.3035004375E+01      0.2044135966E+01
          0                 2          10            23   46     2      -0.1945708617E+00      89   66    1      -0.6634893471E+04      0.3443443205E+05      0.3408076894E+06     -0.1945708617E+00
          0                 3           5            65    3     2       0.3157839665E-02      79   48    1      -0.5278509896E+02      0.5452850725E+02      0.3443443205E+05      0.3157839665E-02

    ------------------------------------------------
       NWT REQUIRED            3 OUTER ITERATIONS 
       AND A TOTAL OF         26 INNER ITERATIONS.
    ------------------------------------------------

 NO OUTPUT CONTROL FOR STRESS PERIOD   26   TIME STEP    3

 SOLVING FOR HEAD 
                                                   Max.-Head-Change                        Max.-Flux-Residual
  Residual-Control   Outer-Iter.   Inner-Iter.     Column Row Layer    Max.-Head-Change    Column Row Layer    Max.-Flux-Residual            L2-New               L2-Old           Solver-Max-Delh
          0                 1          11            89   66     1       0.1628567751E+01      89   66    1       0.6161856828E+05      0.3097341373E+06      0.5452850725E+02      0.1628567751E+01
          0                 2          10            65    5     2      -0.2818374855E+00      89   66    1      -0.6195763560E+04      0.3091771623E+05      0.3097341373E+06     -0.2818374855E+00
          0                 3           5            65    5     2       0.1191555759E-01      90   65    3      -0.2023772129E+02      0.3359380965E+02      0.3091771623E+05      0.1191555759E-01
          0                 4           2            65    5     2       0.5794934340E-03      65    5    2       0.3057200825E+00      0.3514097804E+00      0.3359380965E+02      0.5794934340E-03

    ------------------------------------------------
       NWT REQUIRED            4 OUTER ITERATIONS 
       AND A TOTAL OF         28 INNER ITERATIONS.
    ------------------------------------------------

 NO OUTPUT CONTROL FOR STRESS PERIOD   26   TIME STEP    4

 INTERPOLATION FOR HEAD OBS# 7943, ID 3016-26-123  CHANGED BECAUSE AT LEAST ONE
 NEIGHBORING CELL REQUIRED FOR INTERPOLATION IS DRY OR INACTIVE (OBS2BAS7SE)

 SOLVING FOR HEAD 
                                                   Max.-Head-Change                        Max.-Flux-Residual
  Residual-Control   Outer-Iter.   Inner-Iter.     Column Row Layer    Max.-Head-Change    Column Row Layer    Max.-Flux-Residual            L2-New               L2-Old           Solver-Max-Delh
          0                 1          11            65    5     2      -0.2484713099E+02      88   65    1       0.5851772372E+05      0.2884143642E+06      0.3514097804E+00     -0.2484713099E+02
          0                 2          10            65    5     2       0.1530242888E+01      88   65    1      -0.5878453890E+04      0.2942697933E+05      0.2884143642E+06      0.1530242888E+01
          0                 3           5            65    5     2       0.6776857482E-01      62   24    3      -0.2082850393E+03      0.2240437715E+03      0.2942697933E+05      0.6776857482E-01
          0                 4           2            65    5     2       0.2997647066E-02      65    5    2       0.1713517193E+01      0.1844423399E+01      0.2240437715E+03      0.2997647066E-02

    ------------------------------------------------
       NWT REQUIRED            4 OUTER ITERATIONS 
       AND A TOTAL OF         28 INNER ITERATIONS.
    ------------------------------------------------

 NO OUTPUT CONTROL FOR STRESS PERIOD   26   TIME STEP    5

 SOLVING FOR HEAD 
                                                   Max.-Head-Change                        Max.-Flux-Residual
  Residual-Control   Outer-Iter.   Inner-Iter.     Column Row Layer    Max.-Head-Change    Column Row Layer    Max.-Flux-Residual            L2-New               L2-Old           Solver-Max-Delh
          0                 1          11            91   67     2       0.1447198207E+01      88   65    1       0.5590179800E+05      0.2725063639E+06      0.1844423399E+01      0.1447198207E+01
          0                 2          10            66    4     2      -0.4423918156E+01      88   65    1      -0.5624692029E+04      0.2755018308E+05      0.2725063639E+06     -0.4423918156E+01
          0                 3           5            66    4     2       0.1391028541E+00      66    4    3      -0.1481049764E+03      0.1700118531E+03      0.2755018308E+05      0.1391028541E+00
          0                 4           2            66    4     2       0.8271095374E-02      66    4    2       0.3518478409E+01      0.3703779040E+01      0.1700118531E+03      0.8271095374E-02

    ------------------------------------------------
       NWT REQUIRED            4 OUTER ITERATIONS 
       AND A TOTAL OF         28 INNER ITERATIONS.
    ------------------------------------------------

 NO OUTPUT CONTROL FOR STRESS PERIOD   26   TIME STEP    6

 SOLVING FOR HEAD 
                                                   Max.-Head-Change                        Max.-Flux-Residual
  Residual-Control   Outer-Iter.   Inner-Iter.     Column Row Layer    Max.-Head-Change    Column Row Layer    Max.-Flux-Residual            L2-New               L2-Old           Solver-Max-Delh
          0                 1          11            91   67     2       0.1389764746E+01      88   65    1       0.5341673992E+05      0.2602476697E+06      0.3703779040E+01      0.1389764746E+01
          0                 2          10            89   65     1      -0.3555673380E+00      89   65    1      -0.1748485446E+05      0.3136081772E+05      0.2602476697E+06     -0.3555673380E+00
          0                 3           5            91   77     2       0.1808544840E-02      65    3    3      -0.7428547733E+01      0.1468641927E+02      0.3136081772E+05      0.1808544840E-02

    ------------------------------------------------
       NWT REQUIRED            3 OUTER ITERATIONS 
       AND A TOTAL OF         26 INNER ITERATIONS.
    ------------------------------------------------

 NO OUTPUT CONTROL FOR STRESS PERIOD   26   TIME STEP    7

 SOLVING FOR HEAD 
                                                   Max.-Head-Change                        Max.-Flux-Residual
  Residual-Control   Outer-Iter.   Inner-Iter.     Column Row Layer    Max.-Head-Change    Column Row Layer    Max.-Flux-Residual            L2-New               L2-Old           Solver-Max-Delh
          0                 1          11            91   67     2       0.1336344191E+01      88   65    1       0.5102362982E+05      0.2502168664E+06      0.1468641927E+02      0.1336344191E+01
          0                 2          10            69   21     1      -0.2110301015E+00      88   65    1      -0.5123016880E+04      0.2518157588E+05      0.2502168664E+06     -0.2110301015E+00
          0                 3           5            69   21     1       0.1801382006E-01      63   27    2      -0.2718005560E+03      0.3009205117E+03      0.2518157588E+05      0.1801382006E-01
          0                 4           1            25   77     2       0.3497475411E-03      71   15    1       0.8315235972E+00      0.1447422883E+01      0.3009205117E+03      0.3497475411E-03

    ------------------------------------------------
       NWT REQUIRED            4 OUTER ITERATIONS 
       AND A TOTAL OF         27 INNER ITERATIONS.
    ------------------------------------------------

 NO OUTPUT CONTROL FOR STRESS PERIOD   26   TIME STEP    8

 SOLVING FOR HEAD 
                                                   Max.-Head-Change                        Max.-Flux-Residual
  Residual-Control   Outer-Iter.   Inner-Iter.     Column Row Layer    Max.-Head-Change    Column Row Layer    Max.-Flux-Residual            L2-New               L2-Old           Solver-Max-Delh
          0                 1          11            69   21     1      -0.2010029267E+01      88   65    1       0.4873929636E+05      0.2419294256E+06      0.1447422883E+01     -0.2010029267E+01
          0                 2          10            69   21     1       0.1715775350E+00      88   65    1      -0.4892542336E+04      0.2422416525E+05      0.2419294256E+06      0.1715775350E+00
          0                 3           5            91   77     2       0.1659198950E-02      57  100    3      -0.8020953849E+01      0.1517691971E+02      0.2422416525E+05      0.1659198950E-02

    ------------------------------------------------
       NWT REQUIRED            3 OUTER ITERATIONS 
       AND A TOTAL OF         26 INNER ITERATIONS.
    ------------------------------------------------

 NO OUTPUT CONTROL FOR STRESS PERIOD   26   TIME STEP    9

 SOLVING FOR HEAD 
                                                   Max.-Head-Change                        Max.-Flux-Residual
  Residual-Control   Outer-Iter.   Inner-Iter.     Column Row Layer    Max.-Head-Change    Column Row Layer    Max.-Flux-Residual            L2-New               L2-Old           Solver-Max-Delh
          0                 1          11            52  103     3       0.1266276194E+01      88   65    1       0.4656665317E+05      0.2350809855E+06      0.1517691971E+02      0.1266276194E+01
          0                 2          10            55   84     2      -0.3251198098E+00      55   84    2      -0.9146033234E+04      0.2529788986E+05      0.2350809855E+06     -0.3251198098E+00
          0                 3           5            71   20     3      -0.2576783214E-01      71   20    3      -0.1661496986E+03      0.1741491697E+03      0.2529788986E+05     -0.2576783214E-01
          0                 4           1            25   77     2       0.3543486726E-03      66   16    2      -0.3907763222E+00      0.5671051542E+00      0.1741491697E+03      0.3543486726E-03

    ------------------------------------------------
       NWT REQUIRED            4 OUTER ITERATIONS 
       AND A TOTAL OF         27 INNER ITERATIONS.
    ------------------------------------------------

 NO OUTPUT CONTROL FOR STRESS PERIOD   26   TIME STEP   10

 SOLVING FOR HEAD 
                                                   Max.-Head-Change                        Max.-Flux-Residual
  Residual-Control   Outer-Iter.   Inner-Iter.     Column Row Layer    Max.-Head-Change    Column Row Layer    Max.-Flux-Residual            L2-New               L2-Old           Solver-Max-Delh
          0                 1          11            52  103     3       0.1241355627E+01      88   65    1       0.4450611772E+05      0.2289841809E+06      0.5671051542E+00      0.1241355627E+01
          0                 2          10            52  103     3      -0.1129467504E+00      88   65    1      -0.4465609089E+04      0.2290813203E+05      0.2289841809E+06     -0.1129467504E+00
          0                 3           5            91   77     2       0.1527841186E-02      91   67    1      -0.3905260358E+01      0.9923097713E+01      0.2290813203E+05      0.1527841186E-02

    ------------------------------------------------
       NWT REQUIRED            3 OUTER ITERATIONS 
       AND A TOTAL OF         26 INNER ITERATIONS.
    ------------------------------------------------

 NO OUTPUT CONTROL FOR STRESS PERIOD   26   TIME STEP   11

 INTERPOLATION FOR HEAD OBS# 3707, ID 1471-26-349  CHANGED BECAUSE AT LEAST ONE
 NEIGHBORING CELL REQUIRED FOR INTERPOLATION IS DRY OR INACTIVE (OBS2BAS7SE)

 SOLVING FOR HEAD 
                                                   Max.-Head-Change                        Max.-Flux-Residual
  Residual-Control   Outer-Iter.   Inner-Iter.     Column Row Layer    Max.-Head-Change    Column Row Layer    Max.-Flux-Residual            L2-New               L2-Old           Solver-Max-Delh
          0                 1          11            52  103     3       0.1217456289E+01      88   65    1       0.4255537745E+05      0.2237328306E+06      0.9923097713E+01      0.1217456289E+01
          0                 2          10            89   65     2       0.7023587245E+00      89   65    2       0.7669507133E+04      0.2398756664E+05      0.2237328306E+06      0.7023587245E+00
          0                 3           5            89   65     2      -0.6384640323E-01      89   65    2      -0.7635652912E+03      0.7724712916E+03      0.2398756664E+05     -0.6384640323E-01
          0                 4           1            25   77     2       0.3582001025E-03      91   77    2       0.4078371450E-01      0.1118683433E+00      0.7724712916E+03      0.3582001025E-03

    ------------------------------------------------
       NWT REQUIRED            4 OUTER ITERATIONS 
       AND A TOTAL OF         27 INNER ITERATIONS.
    ------------------------------------------------

 OUTPUT CONTROL FOR STRESS PERIOD   26   TIME STEP   12
    SAVE BUDGET
    SAVE HEAD FOR LAYERS:   1  2  3
 UBDSV1 SAVING "         STORAGE" ON UNIT  39 AT TIME STEP 12, STRESS PERIOD  26
 UBDSV2 SAVING "   CONSTANT HEAD" ON UNIT  39 AT TIME STEP 12, STRESS PERIOD  26
 UBDSV1 SAVING "FLOW RIGHT FACE " ON UNIT  39 AT TIME STEP 12, STRESS PERIOD  26
 UBDSV1 SAVING "FLOW FRONT FACE " ON UNIT  39 AT TIME STEP 12, STRESS PERIOD  26
 UBDSV1 SAVING "FLOW LOWER FACE " ON UNIT  39 AT TIME STEP 12, STRESS PERIOD  26
 UBDSV3 SAVING "              ET" ON UNIT  39 AT TIME STEP 12, STRESS PERIOD  26
 UBDSV3 SAVING "        RECHARGE" ON UNIT  39 AT TIME STEP 12, STRESS PERIOD  26

 INTERPOLATION FOR HEAD OBS# 1738, ID 2615-27-20   CHANGED BECAUSE AT LEAST ONE
 NEIGHBORING CELL REQUIRED FOR INTERPOLATION IS DRY OR INACTIVE (OBS2BAS7SE)

 INTERPOLATION FOR HEAD OBS# 6238, ID 1164-27-12   CHANGED BECAUSE AT LEAST ONE
 NEIGHBORING CELL REQUIRED FOR INTERPOLATION IS DRY OR INACTIVE (OBS2BAS7SE)

 INTERPOLATION FOR HEAD OBS# 6261, ID 987-27-12    CHANGED BECAUSE AT LEAST ONE
 NEIGHBORING CELL REQUIRED FOR INTERPOLATION IS DRY OR INACTIVE (OBS2BAS7SE)

 HEAD WILL BE SAVED ON UNIT   31 AT END OF TIME STEP   12, STRESS PERIOD   26
1
  VOLUMETRIC BUDGET FOR ENTIRE MODEL AT END OF TIME STEP   12, STRESS PERIOD  26
  ------------------------------------------------------------------------------

     CUMULATIVE VOLUMES      L**3       RATES FOR THIS TIME STEP      L**3/T
     ------------------                 ------------------------

           IN:                                      IN:
           ---                                      ---
             STORAGE = 20176072704.0000               STORAGE =      813157.3125
       CONSTANT HEAD =  8625995776.0000         CONSTANT HEAD =      915653.3125
               WELLS =   324179520.0000                 WELLS =           0.0000
                  ET =           0.0000                    ET =           0.0000
            RECHARGE =148165197824.0000              RECHARGE =    25169380.0000

            TOTAL IN =177291444224.0000              TOTAL IN =    26898190.0000

          OUT:                                     OUT:
          ----                                     ----
             STORAGE = 36857393152.0000               STORAGE =     8057930.0000
       CONSTANT HEAD = 54419410944.0000         CONSTANT HEAD =     7274826.5000
               WELLS =   365393344.0000                 WELLS =       10407.0000
                  ET = 85649801216.0000                    ET =    11555053.0000
            RECHARGE =           0.0000              RECHARGE =           0.0000

           TOTAL OUT =177292001280.0000             TOTAL OUT =    26898216.0000

            IN - OUT =     -557056.0000              IN - OUT =         -26.0000

 PERCENT DISCREPANCY =          -0.00     PERCENT DISCREPANCY =          -0.00






         TIME SUMMARY AT END OF TIME STEP   12 IN STRESS PERIOD   26
                    SECONDS     MINUTES      HOURS       DAYS        YEARS
                    -----------------------------------------------------------
   TIME STEP LENGTH 2.62800E+06  43800.      730.00      30.417     8.32763E-02
 STRESS PERIOD TIME 3.15360E+07 5.25600E+05  8760.0      365.00     0.99932    
         TOTAL TIME 8.20541E+08 1.36757E+07 2.27928E+05  9497.0      26.001    
1
1
                            STRESS PERIOD NO.   27, LENGTH =   365.0000    
                            -----------------------------------------------

                              NUMBER OF TIME STEPS =    12

                               MULTIPLIER FOR DELT =     1.000

                            INITIAL TIME STEP SIZE =   30.41667    

 WELL NO.  LAYER   ROW   COL   STRESS RATE         
 --------------------------------------------------
      1      2     33     42     -0.2058E+05

      1 WELL 

 REUSING SURF FROM LAST STRESS PERIOD

 REUSING EVTR FROM LAST STRESS PERIOD

 REUSING EXDP FROM LAST STRESS PERIOD



                           RECHARGE
 READING ON UNIT   16 WITH FORMAT: (15F5.0)            


     63 TIME-VARIANT SPECIFIED-HEAD CELLS

 SOLVING FOR HEAD 
                                                   Max.-Head-Change                        Max.-Flux-Residual
  Residual-Control   Outer-Iter.   Inner-Iter.     Column Row Layer    Max.-Head-Change    Column Row Layer    Max.-Flux-Residual            L2-New               L2-Old           Solver-Max-Delh
          0                 1          11            65    2     2      -0.2957100332E+02      58   66    1       0.1839439112E+06      0.5146995151E+06      0.1118683433E+00     -0.2957100332E+02
          0                 2          10            55   82     2      -0.1921627872E+01      55   82    2      -0.5168899758E+05      0.7685525508E+05      0.5146995151E+06     -0.1921627872E+01
          0                 3           5            65    2     2       0.5575689376E-01      17   22    2      -0.7234454507E+02      0.1637531128E+03      0.7685525508E+05      0.5575689376E-01
          0                 4           3            65    2     2       0.3166465440E-02      28   50    2      -0.4593239706E+01      0.8841358200E+01      0.1637531128E+03      0.3166465440E-02

    ------------------------------------------------
       NWT REQUIRED            4 OUTER ITERATIONS 
       AND A TOTAL OF         29 INNER ITERATIONS.
    ------------------------------------------------

 NO OUTPUT CONTROL FOR STRESS PERIOD   27   TIME STEP    1

 INTERPOLATION FOR HEAD OBS# 1079, ID 2927-27-32   CHANGED BECAUSE AT LEAST ONE
 NEIGHBORING CELL REQUIRED FOR INTERPOLATION IS DRY OR INACTIVE (OBS2BAS7SE)

 SOLVING FOR HEAD 
                                                   Max.-Head-Change                        Max.-Flux-Residual
  Residual-Control   Outer-Iter.   Inner-Iter.     Column Row Layer    Max.-Head-Change    Column Row Layer    Max.-Flux-Residual            L2-New               L2-Old           Solver-Max-Delh
          0                 1          11            23   46     2      -0.2704196321E+01      58   66    1       0.9068711567E+05      0.3517991146E+06      0.8841358200E+01     -0.2704196321E+01
          0                 2          10            23   46     2       0.2253095989E+00      58   66    1      -0.9519589639E+04      0.3513173748E+05      0.3517991146E+06      0.2253095989E+00
          0                 3           5            91   77     2      -0.1730325089E-02      27   61    3       0.3783014962E+02      0.5687105148E+02      0.3513173748E+05     -0.1730325089E-02

    ------------------------------------------------
       NWT REQUIRED            3 OUTER ITERATIONS 
       AND A TOTAL OF         26 INNER ITERATIONS.
    ------------------------------------------------

 NO OUTPUT CONTROL FOR STRESS PERIOD   27   TIME STEP    2

 SOLVING FOR HEAD 
                                                   Max.-Head-Change                        Max.-Flux-Residual
  Residual-Control   Outer-Iter.   Inner-Iter.     Column Row Layer    Max.-Head-Change    Column Row Layer    Max.-Flux-Residual            L2-New               L2-Old           Solver-Max-Delh
          0                 1          11            23   46     2      -0.1707460902E+01      58   66    1       0.4957498791E+05      0.3014187422E+06      0.5687105148E+02     -0.1707460902E+01
          0                 2          10            70   19     1       0.1517570449E+00      58   66    1      -0.5046239463E+04      0.3011290004E+05      0.3014187422E+06      0.1517570449E+00
          0                 3           5            91   77     2      -0.1677472948E-02      60   85    2      -0.1544014210E+02      0.2552219060E+02      0.3011290004E+05     -0.1677472948E-02

    ------------------------------------------------
       NWT REQUIRED            3 OUTER ITERATIONS 
       AND A TOTAL OF         26 INNER ITERATIONS.
    ------------------------------------------------

 NO OUTPUT CONTROL FOR STRESS PERIOD   27   TIME STEP    3

 SOLVING FOR HEAD 
                                                   Max.-Head-Change                        Max.-Flux-Residual
  Residual-Control   Outer-Iter.   Inner-Iter.     Column Row Layer    Max.-Head-Change    Column Row Layer    Max.-Flux-Residual            L2-New               L2-Old           Solver-Max-Delh
          0                 1          11            70   19     1      -0.1557671232E+01      88   65    1       0.4775276389E+05      0.2784206210E+06      0.2552219060E+02     -0.1557671232E+01
          0                 2          10            73   14     1      -0.1242993305E+01      73   14    1      -0.9065263543E+04      0.2910257596E+05      0.2784206210E+06     -0.1242993305E+01
          0                 3           5            73   14     1       0.1084479771E+00      73   14    1       0.8720689403E+03      0.8900400647E+03      0.2910257596E+05      0.1084479771E+00
          0                 4           2            73   14     1       0.3953899777E-03      73   14    1       0.3004604142E+01      0.3008104079E+01      0.8900400647E+03      0.3953899777E-03

    ------------------------------------------------
       NWT REQUIRED            4 OUTER ITERATIONS 
       AND A TOTAL OF         28 INNER ITERATIONS.
    ------------------------------------------------

 NO OUTPUT CONTROL FOR STRESS PERIOD   27   TIME STEP    4

 INTERPOLATION FOR HEAD OBS# 8181, ID 3055-27-126  CHANGED BECAUSE AT LEAST ONE
 NEIGHBORING CELL REQUIRED FOR INTERPOLATION IS DRY OR INACTIVE (OBS2BAS7SE)

 SOLVING FOR HEAD 
                                                   Max.-Head-Change                        Max.-Flux-Residual
  Residual-Control   Outer-Iter.   Inner-Iter.     Column Row Layer    Max.-Head-Change    Column Row Layer    Max.-Flux-Residual            L2-New               L2-Old           Solver-Max-Delh
          0                 1          11            73   14     1      -0.2898743126E+01      88   65    1       0.4644659289E+05      0.2648554203E+06      0.3008104079E+01     -0.2898743126E+01
          0                 2          10            70   19     2       0.5145152054E+00      70   19    2       0.2026172793E+05      0.3334309687E+05      0.2648554203E+06      0.5145152054E+00
          0                 3           5            84   62     2      -0.2601921487E-01      84   62    2      -0.9561649882E+02      0.1013939642E+03      0.3334309687E+05     -0.2601921487E-01
          0                 4           2            25   77     2       0.3606989450E-03      63   14    3       0.3763796203E+00      0.5047448824E+00      0.1013939642E+03      0.3606989450E-03

    ------------------------------------------------
       NWT REQUIRED            4 OUTER ITERATIONS 
       AND A TOTAL OF         28 INNER ITERATIONS.
    ------------------------------------------------

 NO OUTPUT CONTROL FOR STRESS PERIOD   27   TIME STEP    5

 SOLVING FOR HEAD 
                                                   Max.-Head-Change                        Max.-Flux-Residual
  Residual-Control   Outer-Iter.   Inner-Iter.     Column Row Layer    Max.-Head-Change    Column Row Layer    Max.-Flux-Residual            L2-New               L2-Old           Solver-Max-Delh
          0                 1          11            73   14     2      -0.1440090333E+01      88   65    1       0.4519887900E+05      0.2558735631E+06      0.5047448824E+00     -0.1440090333E+01
          0                 2           9            73   14     2       0.1290282422E+00      88   65    1      -0.4526830555E+04      0.2561312380E+05      0.2558735631E+06      0.1290282422E+00
          0                 3           4            25   77     2       0.1544207299E-02      59   89    2      -0.4427147041E+02      0.5666238103E+02      0.2561312380E+05      0.1544207299E-02

    ------------------------------------------------
       NWT REQUIRED            3 OUTER ITERATIONS 
       AND A TOTAL OF         24 INNER ITERATIONS.
    ------------------------------------------------

 NO OUTPUT CONTROL FOR STRESS PERIOD   27   TIME STEP    6

 SOLVING FOR HEAD 
                                                   Max.-Head-Change                        Max.-Flux-Residual
  Residual-Control   Outer-Iter.   Inner-Iter.     Column Row Layer    Max.-Head-Change    Column Row Layer    Max.-Flux-Residual            L2-New               L2-Old           Solver-Max-Delh
          0                 1          11            73   14     2      -0.1349585863E+01      88   65    1       0.4400664778E+05      0.2480331696E+06      0.5666238103E+02     -0.1349585863E+01
          0                 2           9            55   84     3       0.1905174138E+00      88   65    1      -0.4406984607E+04      0.2479884930E+05      0.2480331696E+06      0.1905174138E+00
          0                 3           4            55   84     3      -0.1732022105E-01      55   84    3      -0.1525197799E+03      0.1792736873E+03      0.2479884930E+05     -0.1732022105E-01
          0                 4           2            25   77     2       0.3655560552E-03      31   27    1       0.7583500445E-01      0.1380979537E+00      0.1792736873E+03      0.3655560552E-03

    ------------------------------------------------
       NWT REQUIRED            4 OUTER ITERATIONS 
       AND A TOTAL OF         26 INNER ITERATIONS.
    ------------------------------------------------

 NO OUTPUT CONTROL FOR STRESS PERIOD   27   TIME STEP    7

 SOLVING FOR HEAD 
                                                   Max.-Head-Change                        Max.-Flux-Residual
  Residual-Control   Outer-Iter.   Inner-Iter.     Column Row Layer    Max.-Head-Change    Column Row Layer    Max.-Flux-Residual            L2-New               L2-Old           Solver-Max-Delh
          0                 1          11            55   84     3       0.1597488254E+01      88   65    1       0.4286709101E+05      0.2420630113E+06      0.1380979537E+00      0.1597488254E+01
          0                 2           9            55   84     3      -0.1635648282E+00      88   65    1      -0.4292466742E+04      0.2420488602E+05      0.2420630113E+06     -0.1635648282E+00
          0                 3           5            25   77     2       0.1549118086E-02      58   64    1       0.5948131907E+02      0.6032383035E+02      0.2420488602E+05      0.1549118086E-02

    ------------------------------------------------
       NWT REQUIRED            3 OUTER ITERATIONS 
       AND A TOTAL OF         25 INNER ITERATIONS.
    ------------------------------------------------

 NO OUTPUT CONTROL FOR STRESS PERIOD   27   TIME STEP    8

 SOLVING FOR HEAD 
                                                   Max.-Head-Change                        Max.-Flux-Residual
  Residual-Control   Outer-Iter.   Inner-Iter.     Column Row Layer    Max.-Head-Change    Column Row Layer    Max.-Flux-Residual            L2-New               L2-Old           Solver-Max-Delh
          0                 1          11            88   64     1       0.1222360308E+01      88   65    1       0.4177641542E+05      0.2373881375E+06      0.6032383035E+02      0.1222360308E+01
          0                 2           9            88   64     1      -0.1112381165E+00      88   65    1      -0.4182898608E+04      0.2378116292E+05      0.2373881375E+06     -0.1112381165E+00
          0                 3           5            35   16     3      -0.1977582302E-02      35   16    3      -0.3957071009E+02      0.4561017514E+02      0.2378116292E+05     -0.1977582302E-02

    ------------------------------------------------
       NWT REQUIRED            3 OUTER ITERATIONS 
       AND A TOTAL OF         25 INNER ITERATIONS.
    ------------------------------------------------

 NO OUTPUT CONTROL FOR STRESS PERIOD   27   TIME STEP    9

 SOLVING FOR HEAD 
                                                   Max.-Head-Change                        Max.-Flux-Residual
  Residual-Control   Outer-Iter.   Inner-Iter.     Column Row Layer    Max.-Head-Change    Column Row Layer    Max.-Flux-Residual            L2-New               L2-Old           Solver-Max-Delh
          0                 1          11            88   64     1       0.1181946131E+01      88   65    1       0.4073151511E+05      0.2331747675E+06      0.4561017514E+02      0.1181946131E+01
          0                 2           9            88   64     1      -0.1075506877E+00      12    9    2       0.1296263510E+05      0.2664178940E+05      0.2331747675E+06     -0.1075506877E+00
          0                 3           5            25   77     2       0.1568477794E-02      56   48    1       0.1445123190E+02      0.1763438527E+02      0.2664178940E+05      0.1568477794E-02

    ------------------------------------------------
       NWT REQUIRED            3 OUTER ITERATIONS 
       AND A TOTAL OF         25 INNER ITERATIONS.
    ------------------------------------------------

 NO OUTPUT CONTROL FOR STRESS PERIOD   27   TIME STEP   10

 SOLVING FOR HEAD 
                                                   Max.-Head-Change                        Max.-Flux-Residual
  Residual-Control   Outer-Iter.   Inner-Iter.     Column Row Layer    Max.-Head-Change    Column Row Layer    Max.-Flux-Residual            L2-New               L2-Old           Solver-Max-Delh
          0                 1          11            88   64     1       0.1143603495E+01      88   65    1       0.3973199989E+05      0.2296550640E+06      0.1763438527E+02      0.1143603495E+01
          0                 2           9            87   62     3       0.2324091615E+00      90   66    1      -0.9379597521E+04      0.2478542477E+05      0.2296550640E+06      0.2324091615E+00
          0                 3           5            70   19     1      -0.9168749794E-01      70   19    1      -0.3820847184E+04      0.3821082685E+04      0.2478542477E+05     -0.9168749794E-01
          0                 4           3            70   19     1      -0.8254802249E-02      70   19    1      -0.3439460773E+03      0.3439538536E+03      0.3821082685E+04     -0.8254802249E-02

    ------------------------------------------------
       NWT REQUIRED            4 OUTER ITERATIONS 
       AND A TOTAL OF         28 INNER ITERATIONS.
    ------------------------------------------------

 NO OUTPUT CONTROL FOR STRESS PERIOD   27   TIME STEP   11

 SOLVING FOR HEAD 
                                                   Max.-Head-Change                        Max.-Flux-Residual
  Residual-Control   Outer-Iter.   Inner-Iter.     Column Row Layer    Max.-Head-Change    Column Row Layer    Max.-Flux-Residual            L2-New               L2-Old           Solver-Max-Delh
          0                 1          11            87   62     3       0.1886010633E+01      88   65    1       0.3877548561E+05      0.2264250635E+06      0.3439538536E+03      0.1886010633E+01
          0                 2           9            70   19     1      -0.2419407572E+01      70   19    1      -0.1795922433E+05      0.2893843577E+05      0.2264250635E+06     -0.2419407572E+01
          0                 3           5            70   19     1       0.2108363894E+00      70   19    1       0.1722983932E+04      0.1736090392E+04      0.2893843577E+05      0.2108363894E+00
          0                 4           2            70   19     1       0.7920609185E-03      70   19    1       0.6319073822E+01      0.6337951676E+01      0.1736090392E+04      0.7920609185E-03

    ------------------------------------------------
       NWT REQUIRED            4 OUTER ITERATIONS 
       AND A TOTAL OF         27 INNER ITERATIONS.
    ------------------------------------------------

 OUTPUT CONTROL FOR STRESS PERIOD   27   TIME STEP   12
    SAVE BUDGET
 UBDSV1 SAVING "         STORAGE" ON UNIT  39 AT TIME STEP 12, STRESS PERIOD  27
 UBDSV2 SAVING "   CONSTANT HEAD" ON UNIT  39 AT TIME STEP 12, STRESS PERIOD  27
 UBDSV1 SAVING "FLOW RIGHT FACE " ON UNIT  39 AT TIME STEP 12, STRESS PERIOD  27
 UBDSV1 SAVING "FLOW FRONT FACE " ON UNIT  39 AT TIME STEP 12, STRESS PERIOD  27
 UBDSV1 SAVING "FLOW LOWER FACE " ON UNIT  39 AT TIME STEP 12, STRESS PERIOD  27
 UBDSV3 SAVING "              ET" ON UNIT  39 AT TIME STEP 12, STRESS PERIOD  27
 UBDSV3 SAVING "        RECHARGE" ON UNIT  39 AT TIME STEP 12, STRESS PERIOD  27
1
  VOLUMETRIC BUDGET FOR ENTIRE MODEL AT END OF TIME STEP   12, STRESS PERIOD  27
  ------------------------------------------------------------------------------

     CUMULATIVE VOLUMES      L**3       RATES FOR THIS TIME STEP      L**3/T
     ------------------                 ------------------------

           IN:                                      IN:
           ---                                      ---
             STORAGE = 20822347776.0000               STORAGE =     1439716.3750
       CONSTANT HEAD =  8971783168.0000         CONSTANT HEAD =      979230.0625
               WELLS =   324179520.0000                 WELLS =           0.0000
                  ET =           0.0000                    ET =           0.0000
            RECHARGE =157379428352.0000              RECHARGE =    25244566.0000

            TOTAL IN =187497742336.0000              TOTAL IN =    27663512.0000

          OUT:                                     OUT:
          ----                                     ----
             STORAGE = 40027213824.0000               STORAGE =     8119639.5000
       CONSTANT HEAD = 57102336000.0000         CONSTANT HEAD =     7400139.5000
               WELLS =   372904384.0000                 WELLS =       20578.0000
                  ET = 89995878400.0000                    ET =    12123177.0000
            RECHARGE =           0.0000              RECHARGE =           0.0000

           TOTAL OUT =187498332160.0000             TOTAL OUT =    27663534.0000

            IN - OUT =     -589824.0000              IN - OUT =         -22.0000

 PERCENT DISCREPANCY =          -0.00     PERCENT DISCREPANCY =          -0.00






         TIME SUMMARY AT END OF TIME STEP   12 IN STRESS PERIOD   27
                    SECONDS     MINUTES      HOURS       DAYS        YEARS
                    -----------------------------------------------------------
   TIME STEP LENGTH 2.62800E+06  43800.      730.00      30.417     8.32763E-02
 STRESS PERIOD TIME 3.15360E+07 5.25600E+05  8760.0      365.00     0.99932    
         TOTAL TIME 8.52077E+08 1.42013E+07 2.36688E+05  9862.0      27.001    
1
1
                            STRESS PERIOD NO.   28, LENGTH =   365.0000    
                            -----------------------------------------------

                              NUMBER OF TIME STEPS =    12

                               MULTIPLIER FOR DELT =     1.000

                            INITIAL TIME STEP SIZE =   30.41667    

 WELL NO.  LAYER   ROW   COL   STRESS RATE         
 --------------------------------------------------
      1      1     32     43     -0.5432E+05
      2      2     32     43     -0.1358E+05
      3      1     32     44     -0.2944E+05

      3 WELLS

 REUSING SURF FROM LAST STRESS PERIOD

 REUSING EVTR FROM LAST STRESS PERIOD

 REUSING EXDP FROM LAST STRESS PERIOD



                           RECHARGE
 READING ON UNIT   16 WITH FORMAT: (15F5.0)            


     63 TIME-VARIANT SPECIFIED-HEAD CELLS

 SOLVING FOR HEAD 
                                                   Max.-Head-Change                        Max.-Flux-Residual
  Residual-Control   Outer-Iter.   Inner-Iter.     Column Row Layer    Max.-Head-Change    Column Row Layer    Max.-Flux-Residual            L2-New               L2-Old           Solver-Max-Delh
          0                 1          11            65    2     2       0.1228349092E+03      70   19    1       0.1957292397E+06      0.7438169045E+06      0.6337951676E+01      0.1228349092E+03
          0                 2          10            65    5     2      -0.3023844445E+02      65    5    2      -0.8123400286E+06      0.1425706217E+07      0.7438169045E+06     -0.3023844445E+02
          0                 3           6            70   19     2       0.7528932486E+01      70   19    2       0.3448342945E+06      0.3451664525E+06      0.1425706217E+07      0.7528932486E+01
          0                 4           5            66    5     2       0.7732397282E+00      70   19    2       0.3040226703E+05      0.3041842031E+05      0.3451664525E+06      0.7732397282E+00
          0                 5           4            66    5     2       0.1162767430E+00      70   19    2       0.2728356899E+04      0.2730347388E+04      0.3041842031E+05      0.1162767430E+00
          0                 6           3            66    5     2       0.1747451362E-01      70   19    2       0.2449677499E+03      0.2452546037E+03      0.2730347388E+04      0.1747451362E-01
          0                 7           2            66    5     2       0.2624491998E-02      70   19    2       0.2197330459E+02      0.2202387145E+02      0.2452546037E+03      0.2624491998E-02

    ------------------------------------------------
       NWT REQUIRED            7 OUTER ITERATIONS 
       AND A TOTAL OF         41 INNER ITERATIONS.
    ------------------------------------------------

 NO OUTPUT CONTROL FOR STRESS PERIOD   28   TIME STEP    1

 SOLVING FOR HEAD 
                                                   Max.-Head-Change                        Max.-Flux-Residual
  Residual-Control   Outer-Iter.   Inner-Iter.     Column Row Layer    Max.-Head-Change    Column Row Layer    Max.-Flux-Residual            L2-New               L2-Old           Solver-Max-Delh
          0                 1          11            72   15     1       0.5205645609E+01      72   15    1       0.1401707773E+06      0.5741455889E+06      0.2202387145E+02      0.5205645609E+01
          0                 2          10            72   15     1      -0.4794461236E+00      72   15    1      -0.1424807602E+05      0.5893954831E+05      0.5741455889E+06     -0.4794461236E+00
          0                 3           5            12    9     1       0.1147038553E-01      12    9    1       0.1142736187E+04      0.1191386665E+04      0.5893954831E+05      0.1147038553E-01
          0                 4           3            56   85     2       0.4824441744E-03      56   85    2       0.1412657676E+01      0.1841305048E+01      0.1191386665E+04      0.4824441744E-03

    ------------------------------------------------
       NWT REQUIRED            4 OUTER ITERATIONS 
       AND A TOTAL OF         29 INNER ITERATIONS.
    ------------------------------------------------

 NO OUTPUT CONTROL FOR STRESS PERIOD   28   TIME STEP    2

 SOLVING FOR HEAD 
                                                   Max.-Head-Change                        Max.-Flux-Residual
  Residual-Control   Outer-Iter.   Inner-Iter.     Column Row Layer    Max.-Head-Change    Column Row Layer    Max.-Flux-Residual            L2-New               L2-Old           Solver-Max-Delh
          0                 1          11            72   15     1       0.4829889734E+01      72   15    1       0.1299699899E+06      0.5155956250E+06      0.1841305048E+01      0.4829889734E+01
          0                 2          10            55   83     3       0.2004394611E+01      70   19    2       0.1571630737E+05      0.5612574552E+05      0.5155956250E+06      0.2004394611E+01
          0                 3           5            55   83     3      -0.1822434744E+00      70   19    2      -0.1518132763E+04      0.2234812796E+04      0.5612574552E+05     -0.1822434744E+00
          0                 4           3            25   77     2       0.3655356273E-03      21   30    2       0.3876403712E+01      0.3898589277E+01      0.2234812796E+04      0.3655356273E-03

    ------------------------------------------------
       NWT REQUIRED            4 OUTER ITERATIONS 
       AND A TOTAL OF         29 INNER ITERATIONS.
    ------------------------------------------------

 NO OUTPUT CONTROL FOR STRESS PERIOD   28   TIME STEP    3

 SOLVING FOR HEAD 
                                                   Max.-Head-Change                        Max.-Flux-Residual
  Residual-Control   Outer-Iter.   Inner-Iter.     Column Row Layer    Max.-Head-Change    Column Row Layer    Max.-Flux-Residual            L2-New               L2-Old           Solver-Max-Delh
          0                 1          11            70   19     2       0.7391760711E+01      72   15    1       0.1206143800E+06      0.4810461872E+06      0.3898589277E+01      0.7391760711E+01
          0                 2          10            70   19     2      -0.9266846798E+00      72   15    1      -0.1221460441E+05      0.5047722270E+05      0.4810461872E+06     -0.9266846798E+00
          0                 3           5            71   19     2      -0.9331021348E-02      71   19    2      -0.2955221408E+03      0.3301216675E+03      0.5047722270E+05     -0.9331021348E-02

    ------------------------------------------------
       NWT REQUIRED            3 OUTER ITERATIONS 
       AND A TOTAL OF         26 INNER ITERATIONS.
    ------------------------------------------------

 NO OUTPUT CONTROL FOR STRESS PERIOD   28   TIME STEP    4

 SOLVING FOR HEAD 
                                                   Max.-Head-Change                        Max.-Flux-Residual
  Residual-Control   Outer-Iter.   Inner-Iter.     Column Row Layer    Max.-Head-Change    Column Row Layer    Max.-Flux-Residual            L2-New               L2-Old           Solver-Max-Delh
          0                 1          11            70   19     1       0.4280813748E+01      70   19    1       0.1269167803E+06      0.4617446512E+06      0.3301216675E+03      0.4280813748E+01
          0                 2          10            66   20     2       0.8638657859E+00      66   19    1      -0.2401460727E+05      0.5464163275E+05      0.4617446512E+06      0.8638657859E+00
          0                 3           5            66   20     2      -0.7843149622E-01      66   20    2      -0.1580288337E+04      0.1614363877E+04      0.5464163275E+05     -0.7843149622E-01
          0                 4           1            25   77     2       0.3694847622E-03      67   19    1       0.2561043873E+00      0.4546817462E+00      0.1614363877E+04      0.3694847622E-03

    ------------------------------------------------
       NWT REQUIRED            4 OUTER ITERATIONS 
       AND A TOTAL OF         27 INNER ITERATIONS.
    ------------------------------------------------

 NO OUTPUT CONTROL FOR STRESS PERIOD   28   TIME STEP    5

 SOLVING FOR HEAD 
                                                   Max.-Head-Change                        Max.-Flux-Residual
  Residual-Control   Outer-Iter.   Inner-Iter.     Column Row Layer    Max.-Head-Change    Column Row Layer    Max.-Flux-Residual            L2-New               L2-Old           Solver-Max-Delh
          0                 1          11            70   19     1       0.3911661809E+01      70   19    1       0.1158460088E+06      0.4406175112E+06      0.4546817462E+00      0.3911661809E+01
          0                 2          10            91   67     1      -0.3892667458E+01      91   67    1      -0.1919851883E+05      0.5244769613E+05      0.4406175112E+06     -0.3892667458E+01
          0                 3           5            91   67     1       0.3255520071E+00      91   67    1       0.1767305068E+04      0.2294753629E+04      0.5244769613E+05      0.3255520071E+00
          0                 4           2            91   67     1       0.2364265200E-02      91   67    1       0.1274400551E+02      0.1274953998E+02      0.2294753629E+04      0.2364265200E-02

    ------------------------------------------------
       NWT REQUIRED            4 OUTER ITERATIONS 
       AND A TOTAL OF         28 INNER ITERATIONS.
    ------------------------------------------------

 NO OUTPUT CONTROL FOR STRESS PERIOD   28   TIME STEP    6

 SOLVING FOR HEAD 
                                                   Max.-Head-Change                        Max.-Flux-Residual
  Residual-Control   Outer-Iter.   Inner-Iter.     Column Row Layer    Max.-Head-Change    Column Row Layer    Max.-Flux-Residual            L2-New               L2-Old           Solver-Max-Delh
          0                 1          11            73   14     2       0.5998600268E+01      70   19    1       0.1058721648E+06      0.4238747014E+06      0.1274953998E+02      0.5998600268E+01
          0                 2          10            67   22     2       0.6051184707E+00      67   22    2       0.1078730681E+05      0.4380079356E+05      0.4238747014E+06      0.6051184707E+00
          0                 3           5            67   22     2      -0.5502193379E-01      67   22    2      -0.1053428602E+04      0.1299728525E+04      0.4380079356E+05     -0.5502193379E-01
          0                 4           2            63   14     2       0.6331380928E-03      63   14    3       0.2175628781E+02      0.2205938942E+02      0.1299728525E+04      0.6331380928E-03

    ------------------------------------------------
       NWT REQUIRED            4 OUTER ITERATIONS 
       AND A TOTAL OF         28 INNER ITERATIONS.
    ------------------------------------------------

 NO OUTPUT CONTROL FOR STRESS PERIOD   28   TIME STEP    7

 SOLVING FOR HEAD 
                                                   Max.-Head-Change                        Max.-Flux-Residual
  Residual-Control   Outer-Iter.   Inner-Iter.     Column Row Layer    Max.-Head-Change    Column Row Layer    Max.-Flux-Residual            L2-New               L2-Old           Solver-Max-Delh
          0                 1          11            72   15     1       0.3421587699E+01      70   19    1       0.9700522948E+05      0.4140390061E+06      0.2205938942E+02      0.3421587699E+01
          0                 2          10            72   15     1      -0.3124040366E+00      70   19    1      -0.9765260888E+04      0.4220521572E+05      0.4140390061E+06     -0.3124040366E+00
          0                 3           5            54   34     2      -0.1103867273E-01      54   34    2      -0.3455709513E+03      0.3825493711E+03      0.4220521572E+05     -0.1103867273E-01
          0                 4           2            25   77     2       0.3651834567E-03      58   34    1      -0.1364047490E+00      0.2071864402E+00      0.3825493711E+03      0.3651834567E-03

    ------------------------------------------------
       NWT REQUIRED            4 OUTER ITERATIONS 
       AND A TOTAL OF         28 INNER ITERATIONS.
    ------------------------------------------------

 NO OUTPUT CONTROL FOR STRESS PERIOD   28   TIME STEP    8

 SOLVING FOR HEAD 
                                                   Max.-Head-Change                        Max.-Flux-Residual
  Residual-Control   Outer-Iter.   Inner-Iter.     Column Row Layer    Max.-Head-Change    Column Row Layer    Max.-Flux-Residual            L2-New               L2-Old           Solver-Max-Delh
          0                 1          11            72   15     1       0.3220006617E+01      70   19    1       0.8912831798E+05      0.4025802768E+06      0.2071864402E+00      0.3220006617E+01
          0                 2          10            72   15     1      -0.2938608173E+00      70   19    1      -0.8963302606E+04      0.4107688692E+05      0.4025802768E+06     -0.2938608173E+00
          0                 3           5            79   61     2      -0.8871027980E-02      79   61    2      -0.4792440857E+02      0.6347649405E+02      0.4107688692E+05     -0.8871027980E-02

    ------------------------------------------------
       NWT REQUIRED            3 OUTER ITERATIONS 
       AND A TOTAL OF         26 INNER ITERATIONS.
    ------------------------------------------------

 NO OUTPUT CONTROL FOR STRESS PERIOD   28   TIME STEP    9

 SOLVING FOR HEAD 
                                                   Max.-Head-Change                        Max.-Flux-Residual
  Residual-Control   Outer-Iter.   Inner-Iter.     Column Row Layer    Max.-Head-Change    Column Row Layer    Max.-Flux-Residual            L2-New               L2-Old           Solver-Max-Delh
          0                 1          11            72   15     1       0.3038631871E+01      70   19    1       0.8213419970E+05      0.3925387453E+06      0.6347649405E+02      0.3038631871E+01
          0                 2          10            60   25     3       0.3947593381E+00      70   19    1      -0.8252729832E+04      0.3937504032E+05      0.3925387453E+06      0.3947593381E+00
          0                 3           5            60   25     3      -0.3588751348E-01      60   25    3      -0.1805282742E+03      0.2255528531E+03      0.3937504032E+05     -0.3588751348E-01
          0                 4           1            25   77     2       0.3673678295E-03      66   18    1      -0.4159551822E+00      0.4432148666E+00      0.2255528531E+03      0.3673678295E-03

    ------------------------------------------------
       NWT REQUIRED            4 OUTER ITERATIONS 
       AND A TOTAL OF         27 INNER ITERATIONS.
    ------------------------------------------------

 NO OUTPUT CONTROL FOR STRESS PERIOD   28   TIME STEP   10

 SOLVING FOR HEAD 
                                                   Max.-Head-Change                        Max.-Flux-Residual
  Residual-Control   Outer-Iter.   Inner-Iter.     Column Row Layer    Max.-Head-Change    Column Row Layer    Max.-Flux-Residual            L2-New               L2-Old           Solver-Max-Delh
          0                 1          11            72   15     1       0.2875525111E+01      72   15    1       0.7595967937E+05      0.3838835191E+06      0.4432148666E+00      0.2875525111E+01
          0                 2          10            80   45     2       0.1006403976E+01      66   18    1      -0.1938036921E+05      0.4331184817E+05      0.3838835191E+06      0.1006403976E+01
          0                 3           5            69   21     2       0.1461721481E+00      69   21    2       0.6460465063E+04      0.6481628009E+04      0.4331184817E+05      0.1461721481E+00
          0                 4           4            69   21     2       0.1315169243E-01      69   21    2       0.5812266421E+03      0.5812403643E+03      0.6481628009E+04      0.1315169243E-01
          0                 5           3            69   21     2       0.1182457929E-02      69   21    2       0.5225055590E+02      0.5225177578E+02      0.5812403643E+03      0.1182457929E-02

    ------------------------------------------------
       NWT REQUIRED            5 OUTER ITERATIONS 
       AND A TOTAL OF         33 INNER ITERATIONS.
    ------------------------------------------------

 NO OUTPUT CONTROL FOR STRESS PERIOD   28   TIME STEP   11

 SOLVING FOR HEAD 
                                                   Max.-Head-Change                        Max.-Flux-Residual
  Residual-Control   Outer-Iter.   Inner-Iter.     Column Row Layer    Max.-Head-Change    Column Row Layer    Max.-Flux-Residual            L2-New               L2-Old           Solver-Max-Delh
          0                 1          11            72   15     1       0.2728741230E+01      72   15    1       0.7188845029E+05      0.3762626673E+06      0.5225177578E+02      0.2728741230E+01
          0                 2          10            69   21     2       0.3074083579E+01      69   21    2       0.2930611375E+05      0.4790001920E+05      0.3762626673E+06      0.3074083579E+01
          0                 3           5            69   21     2      -0.2794372876E+00      69   21    2      -0.2929114222E+04      0.3035116684E+04      0.4790001920E+05     -0.2794372876E+00
          0                 4           2            25   77     2       0.3608999064E-03      69   22    1      -0.1848612800E+00      0.3090101365E+00      0.3035116684E+04      0.3608999064E-03

    ------------------------------------------------
       NWT REQUIRED            4 OUTER ITERATIONS 
       AND A TOTAL OF         28 INNER ITERATIONS.
    ------------------------------------------------

 OUTPUT CONTROL FOR STRESS PERIOD   28   TIME STEP   12
    SAVE BUDGET
 UBDSV1 SAVING "         STORAGE" ON UNIT  39 AT TIME STEP 12, STRESS PERIOD  28
 UBDSV2 SAVING "   CONSTANT HEAD" ON UNIT  39 AT TIME STEP 12, STRESS PERIOD  28
 UBDSV1 SAVING "FLOW RIGHT FACE " ON UNIT  39 AT TIME STEP 12, STRESS PERIOD  28
 UBDSV1 SAVING "FLOW FRONT FACE " ON UNIT  39 AT TIME STEP 12, STRESS PERIOD  28
 UBDSV1 SAVING "FLOW LOWER FACE " ON UNIT  39 AT TIME STEP 12, STRESS PERIOD  28
 UBDSV3 SAVING "              ET" ON UNIT  39 AT TIME STEP 12, STRESS PERIOD  28
 UBDSV3 SAVING "        RECHARGE" ON UNIT  39 AT TIME STEP 12, STRESS PERIOD  28
1
  VOLUMETRIC BUDGET FOR ENTIRE MODEL AT END OF TIME STEP   12, STRESS PERIOD  28
  ------------------------------------------------------------------------------

     CUMULATIVE VOLUMES      L**3       RATES FOR THIS TIME STEP      L**3/T
     ------------------                 ------------------------

           IN:                                      IN:
           ---                                      ---
             STORAGE = 21523255296.0000               STORAGE =     1380103.2500
       CONSTANT HEAD =  9351431168.0000         CONSTANT HEAD =     1091875.3750
               WELLS =   324179520.0000                 WELLS =           0.0000
                  ET =           0.0000                    ET =           0.0000
            RECHARGE =167871021056.0000              RECHARGE =    28743986.0000

            TOTAL IN =199069892608.0000              TOTAL IN =    31215964.0000

          OUT:                                     OUT:
          ----                                     ----
             STORAGE = 44474109952.0000               STORAGE =    11660225.0000
       CONSTANT HEAD = 59821821952.0000         CONSTANT HEAD =     7483967.0000
               WELLS =   408437056.0000                 WELLS =       97350.0000
                  ET = 94366081024.0000                    ET =    11974445.0000
            RECHARGE =           0.0000              RECHARGE =           0.0000

           TOTAL OUT =199070449664.0000             TOTAL OUT =    31215988.0000

            IN - OUT =     -557056.0000              IN - OUT =         -24.0000

 PERCENT DISCREPANCY =          -0.00     PERCENT DISCREPANCY =          -0.00






         TIME SUMMARY AT END OF TIME STEP   12 IN STRESS PERIOD   28
                    SECONDS     MINUTES      HOURS       DAYS        YEARS
                    -----------------------------------------------------------
   TIME STEP LENGTH 2.62800E+06  43800.      730.00      30.417     8.32763E-02
 STRESS PERIOD TIME 3.15360E+07 5.25600E+05  8760.0      365.00     0.99932    
         TOTAL TIME 8.83613E+08 1.47269E+07 2.45448E+05  10227.      28.000    
1
1
                            STRESS PERIOD NO.   29, LENGTH =   366.0000    
                            -----------------------------------------------

                              NUMBER OF TIME STEPS =    12

                               MULTIPLIER FOR DELT =     1.000

                            INITIAL TIME STEP SIZE =   30.50000    

 WELL NO.  LAYER   ROW   COL   STRESS RATE         
 --------------------------------------------------
      1      3     32     44      -5521.    
      2      1     32     44     -0.4246E+05

      2 WELLS

 REUSING SURF FROM LAST STRESS PERIOD

 REUSING EVTR FROM LAST STRESS PERIOD

 REUSING EXDP FROM LAST STRESS PERIOD



                           RECHARGE
 READING ON UNIT   16 WITH FORMAT: (15F5.0)            


     63 TIME-VARIANT SPECIFIED-HEAD CELLS

 SOLVING FOR HEAD 
                                                   Max.-Head-Change                        Max.-Flux-Residual
  Residual-Control   Outer-Iter.   Inner-Iter.     Column Row Layer    Max.-Head-Change    Column Row Layer    Max.-Flux-Residual            L2-New               L2-Old           Solver-Max-Delh
          0                 1          11            65    1     2      -0.4332407536E+02      18   17    1       0.1338308404E+06      0.8884966000E+06      0.3090101365E+00     -0.4332407536E+02
          0                 2          10            65    2     2      -0.3128799754E+02      66   18    1      -0.1882431861E+05      0.9062135138E+05      0.8884966000E+06     -0.3128799754E+02
          0                 3           6            65    2     2       0.9889294320E+00      66   18    2      -0.2464613914E+04      0.3692966979E+04      0.9062135138E+05      0.9889294320E+00
          0                 4           3            65    2     2       0.5780862244E-01      65    2    2       0.2573247732E+02      0.2677305708E+02      0.3692966979E+04      0.5780862244E-01
          0                 5           2            65    2     2       0.3375444300E-02      65    2    3       0.2286378693E+01      0.2868115562E+01      0.2677305708E+02      0.3375444300E-02

    ------------------------------------------------
       NWT REQUIRED            5 OUTER ITERATIONS 
       AND A TOTAL OF         32 INNER ITERATIONS.
    ------------------------------------------------

 NO OUTPUT CONTROL FOR STRESS PERIOD   29   TIME STEP    1

 SOLVING FOR HEAD 
                                                   Max.-Head-Change                        Max.-Flux-Residual
  Residual-Control   Outer-Iter.   Inner-Iter.     Column Row Layer    Max.-Head-Change    Column Row Layer    Max.-Flux-Residual            L2-New               L2-Old           Solver-Max-Delh
          0                 1          11            65    2     2      -0.7956793143E+02      70   19    1      -0.1166595693E+06      0.5403872923E+06      0.2868115562E+01     -0.7956793143E+02
          0                 2          10            66    1     2      -0.6254890610E+02      66    1    2      -0.2281422551E+05      0.5832401920E+05      0.5403872923E+06     -0.6254890610E+02
          0                 3           6            66    1     2       0.1699219905E+01      66    1    3      -0.2316079987E+04      0.2487810103E+04      0.5832401920E+05      0.1699219905E+01
          0                 4           3            66    1     2       0.1067959767E+00      66    1    2       0.4279864450E+02      0.4305414184E+02      0.2487810103E+04      0.1067959767E+00
          0                 5           2            66    1     2       0.6704859611E-02      66    1    3       0.3886332225E+01      0.4782996928E+01      0.4305414184E+02      0.6704859611E-02

    ------------------------------------------------
       NWT REQUIRED            5 OUTER ITERATIONS 
       AND A TOTAL OF         32 INNER ITERATIONS.
    ------------------------------------------------

 NO OUTPUT CONTROL FOR STRESS PERIOD   29   TIME STEP    2

 SOLVING FOR HEAD 
                                                   Max.-Head-Change                        Max.-Flux-Residual
  Residual-Control   Outer-Iter.   Inner-Iter.     Column Row Layer    Max.-Head-Change    Column Row Layer    Max.-Flux-Residual            L2-New               L2-Old           Solver-Max-Delh
          0                 1          11            66    1     2      -0.1348431473E+02      70   19    1      -0.1030368533E+06      0.4371763484E+06      0.4782996928E+01     -0.1348431473E+02
          0                 2           9            66    1     2       0.3772882148E+00      70   19    1       0.1018903107E+05      0.4393909143E+05      0.4371763484E+06      0.3772882148E+00
          0                 3           4            66    1     2       0.2366584186E-01      64    2    3       0.2879880977E+02      0.4501001929E+02      0.4393909143E+05      0.2366584186E-01
          0                 4           2            66    1     2       0.1482448073E-02      66    1    2       0.5939182956E+00      0.6801035251E+00      0.4501001929E+02      0.1482448073E-02

    ------------------------------------------------
       NWT REQUIRED            4 OUTER ITERATIONS 
       AND A TOTAL OF         26 INNER ITERATIONS.
    ------------------------------------------------

 NO OUTPUT CONTROL FOR STRESS PERIOD   29   TIME STEP    3

 SOLVING FOR HEAD 
                                                   Max.-Head-Change                        Max.-Flux-Residual
  Residual-Control   Outer-Iter.   Inner-Iter.     Column Row Layer    Max.-Head-Change    Column Row Layer    Max.-Flux-Residual            L2-New               L2-Old           Solver-Max-Delh
          0                 1          11            70   19     1      -0.3019592712E+01      70   19    1      -0.9148556928E+05      0.3822888937E+06      0.6801035251E+00     -0.3019592712E+01
          0                 2           9            84   63     2       0.4563908697E+00      69   21    2       0.1081434946E+05      0.3970427280E+05      0.3822888937E+06      0.4563908697E+00
          0                 3           4            84   63     2      -0.4148727622E-01      84   63    2      -0.1514579817E+03      0.1783716846E+03      0.3970427280E+05     -0.4148727622E-01
          0                 4           2            25   77     2       0.3547348993E-03      84   51    1      -0.1502205580E+00      0.3603054872E+00      0.1783716846E+03      0.3547348993E-03

    ------------------------------------------------
       NWT REQUIRED            4 OUTER ITERATIONS 
       AND A TOTAL OF         26 INNER ITERATIONS.
    ------------------------------------------------

 NO OUTPUT CONTROL FOR STRESS PERIOD   29   TIME STEP    4

 SOLVING FOR HEAD 
                                                   Max.-Head-Change                        Max.-Flux-Residual
  Residual-Control   Outer-Iter.   Inner-Iter.     Column Row Layer    Max.-Head-Change    Column Row Layer    Max.-Flux-Residual            L2-New               L2-Old           Solver-Max-Delh
          0                 1          11            70   19     1      -0.2706225984E+01      70   19    1      -0.8162193047E+05      0.3449463068E+06      0.3603054872E+00     -0.2706225984E+01
          0                 2           9            65    6     2      -0.1644865806E+02      65    6    2      -0.9299406343E+04      0.3617333230E+05      0.3449463068E+06     -0.1644865806E+02
          0                 3           5            65    6     2       0.8291675606E+00      65    6    3      -0.9024638999E+03      0.1072067418E+04      0.3617333230E+05      0.8291675606E+00
          0                 4           2            65    6     2       0.3369231176E-01      65    6    2       0.2096769854E+02      0.2098406506E+02      0.1072067418E+04      0.3369231176E-01
          0                 5           2            65    6     2       0.1366265659E-02      65    6    3       0.1832799088E+01      0.2007070175E+01      0.2098406506E+02      0.1366265659E-02

    ------------------------------------------------
       NWT REQUIRED            5 OUTER ITERATIONS 
       AND A TOTAL OF         29 INNER ITERATIONS.
    ------------------------------------------------

 NO OUTPUT CONTROL FOR STRESS PERIOD   29   TIME STEP    5

 SOLVING FOR HEAD 
                                                   Max.-Head-Change                        Max.-Flux-Residual
  Residual-Control   Outer-Iter.   Inner-Iter.     Column Row Layer    Max.-Head-Change    Column Row Layer    Max.-Flux-Residual            L2-New               L2-Old           Solver-Max-Delh
          0                 1          11            65    6     2      -0.2337457821E+02      70   19    1      -0.7314501237E+05      0.3162607601E+06      0.2007070175E+01     -0.2337457821E+02
          0                 2           9            65    3     2      -0.2248739790E+02      65    3    2      -0.9039341504E+04      0.3293189027E+05      0.3162607601E+06     -0.2248739790E+02
          0                 3           5            65    3     2       0.1213839281E+01      65    3    2       0.6035745804E+03      0.7583614861E+03      0.3293189027E+05      0.1213839281E+01
          0                 4           2            65    3     2       0.6190055316E-01      65    3    2       0.3077169397E+02      0.3614554690E+02      0.7583614861E+03      0.6190055316E-01
          0                 5           2            65    3     2       0.3147786424E-02      65    3    2       0.1565813903E+01      0.2172177902E+01      0.3614554690E+02      0.3147786424E-02

    ------------------------------------------------
       NWT REQUIRED            5 OUTER ITERATIONS 
       AND A TOTAL OF         29 INNER ITERATIONS.
    ------------------------------------------------

 NO OUTPUT CONTROL FOR STRESS PERIOD   29   TIME STEP    6

 SOLVING FOR HEAD 
                                                   Max.-Head-Change                        Max.-Flux-Residual
  Residual-Control   Outer-Iter.   Inner-Iter.     Column Row Layer    Max.-Head-Change    Column Row Layer    Max.-Flux-Residual            L2-New               L2-Old           Solver-Max-Delh
          0                 1          11            65    3     2      -0.1363711920E+02      70   19    1      -0.6582475257E+05      0.2938293634E+06      0.2172177902E+01     -0.1363711920E+02
          0                 2           9            65    3     2       0.4786696007E+00      70   19    1       0.6541115646E+04      0.2927293873E+05      0.2938293634E+06      0.4786696007E+00
          0                 3           5            65    5     2      -0.2782705709E+00      65    5    2      -0.7984197194E+04      0.7988421062E+04      0.2927293873E+05     -0.2782705709E+00
          0                 4           2            65    5     2      -0.2509487067E-01      65    5    2      -0.7197235485E+03      0.7200849378E+03      0.7988421062E+04     -0.2509487067E-01
          0                 5           2            65    5     2      -0.2256667346E-02      65    5    2      -0.6471258940E+02      0.6474498546E+02      0.7200849378E+03     -0.2256667346E-02

    ------------------------------------------------
       NWT REQUIRED            5 OUTER ITERATIONS 
       AND A TOTAL OF         29 INNER ITERATIONS.
    ------------------------------------------------

 NO OUTPUT CONTROL FOR STRESS PERIOD   29   TIME STEP    7

 SOLVING FOR HEAD 
                                                   Max.-Head-Change                        Max.-Flux-Residual
  Residual-Control   Outer-Iter.   Inner-Iter.     Column Row Layer    Max.-Head-Change    Column Row Layer    Max.-Flux-Residual            L2-New               L2-Old           Solver-Max-Delh
          0                 1          11            72   15     1      -0.2056041963E+01      70   19    1      -0.5947437691E+05      0.2760747672E+06      0.6474498546E+02     -0.2056041963E+01
          0                 2           9            65    5     2      -0.3931865020E+02      65    5    2      -0.1886036844E+05      0.3353082099E+05      0.2760747672E+06     -0.3931865020E+02
          0                 3           5            65    5     2       0.3556540035E+01      65    5    2       0.2063201704E+04      0.2410371122E+04      0.3353082099E+05      0.3556540035E+01
          0                 4           2            65    5     2       0.1561312371E+00      65    4    2      -0.9078957531E+02      0.1288335778E+03      0.2410371122E+04      0.1561312371E+00
          0                 5           2            65    5     2       0.6800378355E-02      65    4    2      -0.7439610929E+01      0.8706263211E+01      0.1288335778E+03      0.6800378355E-02

    ------------------------------------------------
       NWT REQUIRED            5 OUTER ITERATIONS 
       AND A TOTAL OF         29 INNER ITERATIONS.
    ------------------------------------------------

 NO OUTPUT CONTROL FOR STRESS PERIOD   29   TIME STEP    8

 SOLVING FOR HEAD 
                                                   Max.-Head-Change                        Max.-Flux-Residual
  Residual-Control   Outer-Iter.   Inner-Iter.     Column Row Layer    Max.-Head-Change    Column Row Layer    Max.-Flux-Residual            L2-New               L2-Old           Solver-Max-Delh
          0                 1          11            72   15     1      -0.1909540808E+01      70   19    1      -0.5488913416E+05      0.2609780207E+06      0.8706263211E+01     -0.1909540808E+01
          0                 2           9            72   15     1       0.1728329587E+00      70   19    1       0.5460856596E+04      0.2606877737E+05      0.2609780207E+06      0.1728329587E+00
          0                 3           4            91   77     2       0.1989744925E-02      73   15    1       0.3059444791E+01      0.9644572370E+01      0.2606877737E+05      0.1989744925E-02

    ------------------------------------------------
       NWT REQUIRED            3 OUTER ITERATIONS 
       AND A TOTAL OF         24 INNER ITERATIONS.
    ------------------------------------------------

 NO OUTPUT CONTROL FOR STRESS PERIOD   29   TIME STEP    9

 SOLVING FOR HEAD 
                                                   Max.-Head-Change                        Max.-Flux-Residual
  Residual-Control   Outer-Iter.   Inner-Iter.     Column Row Layer    Max.-Head-Change    Column Row Layer    Max.-Flux-Residual            L2-New               L2-Old           Solver-Max-Delh
          0                 1          11            72   15     1      -0.1780143953E+01      70   19    1      -0.5087255145E+05      0.2485205443E+06      0.9644572370E+01     -0.1780143953E+01
          0                 2           9            72   15     1       0.1611921657E+00      70   19    1       0.5063909972E+04      0.2501782257E+05      0.2485205443E+06      0.1611921657E+00
          0                 3           5            14    2     2       0.6379817033E-02      14    2    2       0.1967463468E+03      0.1969875616E+03      0.2501782257E+05      0.6379817033E-02

    ------------------------------------------------
       NWT REQUIRED            3 OUTER ITERATIONS 
       AND A TOTAL OF         25 INNER ITERATIONS.
    ------------------------------------------------

 NO OUTPUT CONTROL FOR STRESS PERIOD   29   TIME STEP   10

 SOLVING FOR HEAD 
                                                   Max.-Head-Change                        Max.-Flux-Residual
  Residual-Control   Outer-Iter.   Inner-Iter.     Column Row Layer    Max.-Head-Change    Column Row Layer    Max.-Flux-Residual            L2-New               L2-Old           Solver-Max-Delh
          0                 1          11            72   15     1      -0.1665354441E+01      70   19    1      -0.4725873323E+05      0.2377657139E+06      0.1969875616E+03     -0.1665354441E+01
          0                 2           9            72   15     1       0.1508522599E+00      14    2    2       0.4972874815E+04      0.2426814535E+05      0.2377657139E+06      0.1508522599E+00
          0                 3           4            91   77     2       0.1889250888E-02      59   84    1      -0.5104094394E+01      0.1060398412E+02      0.2426814535E+05      0.1889250888E-02

    ------------------------------------------------
       NWT REQUIRED            3 OUTER ITERATIONS 
       AND A TOTAL OF         24 INNER ITERATIONS.
    ------------------------------------------------

 NO OUTPUT CONTROL FOR STRESS PERIOD   29   TIME STEP   11

 SOLVING FOR HEAD 
                                                   Max.-Head-Change                        Max.-Flux-Residual
  Residual-Control   Outer-Iter.   Inner-Iter.     Column Row Layer    Max.-Head-Change    Column Row Layer    Max.-Flux-Residual            L2-New               L2-Old           Solver-Max-Delh
          0                 1          11            72   15     1      -0.1563104408E+01      70   19    1      -0.4399683364E+05      0.2283737692E+06      0.1060398412E+02     -0.1563104408E+01
          0                 2           9            92   77     2      -0.2744534336E+02      92   77    2      -0.8723813477E+04      0.2450288296E+05      0.2283737692E+06     -0.2744534336E+02
          0                 3           4            92   77     2       0.2606102988E+00      92   77    3      -0.8127111058E+03      0.8665867136E+03      0.2450288296E+05      0.2606102988E+00
          0                 4           2            92   77     2       0.2091577614E-01      92   77    2       0.7302547231E+01      0.7383161446E+01      0.8665867136E+03      0.2091577614E-01
          0                 5           2            92   77     2       0.1676910949E-02      92   77    3       0.6192538813E+00      0.8480545869E+00      0.7383161446E+01      0.1676910949E-02

    ------------------------------------------------
       NWT REQUIRED            5 OUTER ITERATIONS 
       AND A TOTAL OF         28 INNER ITERATIONS.
    ------------------------------------------------

 OUTPUT CONTROL FOR STRESS PERIOD   29   TIME STEP   12
    SAVE BUDGET
 UBDSV1 SAVING "         STORAGE" ON UNIT  39 AT TIME STEP 12, STRESS PERIOD  29
 UBDSV2 SAVING "   CONSTANT HEAD" ON UNIT  39 AT TIME STEP 12, STRESS PERIOD  29
 UBDSV1 SAVING "FLOW RIGHT FACE " ON UNIT  39 AT TIME STEP 12, STRESS PERIOD  29
 UBDSV1 SAVING "FLOW FRONT FACE " ON UNIT  39 AT TIME STEP 12, STRESS PERIOD  29
 UBDSV1 SAVING "FLOW LOWER FACE " ON UNIT  39 AT TIME STEP 12, STRESS PERIOD  29
 UBDSV3 SAVING "              ET" ON UNIT  39 AT TIME STEP 12, STRESS PERIOD  29
 UBDSV3 SAVING "        RECHARGE" ON UNIT  39 AT TIME STEP 12, STRESS PERIOD  29

 INTERPOLATION FOR HEAD OBS# 8203, ID 2355-30-1    CHANGED BECAUSE AT LEAST ONE
 NEIGHBORING CELL REQUIRED FOR INTERPOLATION IS DRY OR INACTIVE (OBS2BAS7SE)

 INTERPOLATION FOR HEAD OBS# 8225, ID 1427-30-11   CHANGED BECAUSE AT LEAST ONE
 NEIGHBORING CELL REQUIRED FOR INTERPOLATION IS DRY OR INACTIVE (OBS2BAS7SE)
1
  VOLUMETRIC BUDGET FOR ENTIRE MODEL AT END OF TIME STEP   12, STRESS PERIOD  29
  ------------------------------------------------------------------------------

     CUMULATIVE VOLUMES      L**3       RATES FOR THIS TIME STEP      L**3/T
     ------------------                 ------------------------

           IN:                                      IN:
           ---                                      ---
             STORAGE = 23761541120.0000               STORAGE =     4557152.5000
       CONSTANT HEAD =  9777351680.0000         CONSTANT HEAD =     1206635.6250
               WELLS =   324179520.0000                 WELLS =           0.0000
                  ET =           0.0000                    ET =           0.0000
            RECHARGE =173939916800.0000              RECHARGE =    16581641.0000

            TOTAL IN =207802990592.0000              TOTAL IN =    22345428.0000

          OUT:                                     OUT:
          ----                                     ----
             STORAGE = 46394667008.0000               STORAGE =     4103935.2500
       CONSTANT HEAD = 62502174720.0000         CONSTANT HEAD =     7286032.0000
               WELLS =   425999296.0000                 WELLS =       47984.0000
                  ET = 98480709632.0000                    ET =    10907501.0000
            RECHARGE =           0.0000              RECHARGE =           0.0000

           TOTAL OUT =207803547648.0000             TOTAL OUT =    22345452.0000

            IN - OUT =     -557056.0000              IN - OUT =         -24.0000

 PERCENT DISCREPANCY =          -0.00     PERCENT DISCREPANCY =          -0.00






         TIME SUMMARY AT END OF TIME STEP   12 IN STRESS PERIOD   29
                    SECONDS     MINUTES      HOURS       DAYS        YEARS
                    -----------------------------------------------------------
   TIME STEP LENGTH 2.63520E+06  43920.      732.00      30.500     8.35044E-02
 STRESS PERIOD TIME 3.16224E+07 5.27040E+05  8784.0      366.00      1.0021    
         TOTAL TIME 9.15236E+08 1.52539E+07 2.54232E+05  10593.      29.002    
1
1
                            STRESS PERIOD NO.   30, LENGTH =   365.0000    
                            -----------------------------------------------

                              NUMBER OF TIME STEPS =    12

                               MULTIPLIER FOR DELT =     1.000

                            INITIAL TIME STEP SIZE =   30.41667    

 WELL NO.  LAYER   ROW   COL   STRESS RATE         
 --------------------------------------------------
      1      1     33     43     -0.6325E+05
      2      1     33     44     -0.1058E+05

      2 WELLS

 REUSING SURF FROM LAST STRESS PERIOD

 REUSING EVTR FROM LAST STRESS PERIOD

 REUSING EXDP FROM LAST STRESS PERIOD



                           RECHARGE
 READING ON UNIT   16 WITH FORMAT: (15F5.0)            


     63 TIME-VARIANT SPECIFIED-HEAD CELLS

 SOLVING FOR HEAD 
                                                   Max.-Head-Change                        Max.-Flux-Residual
  Residual-Control   Outer-Iter.   Inner-Iter.     Column Row Layer    Max.-Head-Change    Column Row Layer    Max.-Flux-Residual            L2-New               L2-Old           Solver-Max-Delh
          0                 1          11            92   77     2      -0.5917837578E+02      23   46    2       0.1297136460E+06      0.4240997088E+06      0.8480545869E+00     -0.5917837578E+02
          0                 2          10            92   77     2       0.2191610161E+02      92   77    2       0.1733792352E+05      0.5019622849E+05      0.4240997088E+06      0.2191610161E+02
          0                 3           6            92   77     2       0.8190795235E+00      51  103    3       0.7223016787E+04      0.7325129292E+04      0.5019622849E+05      0.8190795235E+00
          0                 4           2            92   77     2       0.2889494870E-01      51  103    3       0.6497198523E+03      0.6501863329E+03      0.7325129292E+04      0.2889494870E-01
          0                 5           1            51  103     3       0.2156438587E-02      51  103    3       0.5840699457E+02      0.5841812880E+02      0.6501863329E+03      0.2156438587E-02

    ------------------------------------------------
       NWT REQUIRED            5 OUTER ITERATIONS 
       AND A TOTAL OF         30 INNER ITERATIONS.
    ------------------------------------------------

 NO OUTPUT CONTROL FOR STRESS PERIOD   30   TIME STEP    1

 SOLVING FOR HEAD 
                                                   Max.-Head-Change                        Max.-Flux-Residual
  Residual-Control   Outer-Iter.   Inner-Iter.     Column Row Layer    Max.-Head-Change    Column Row Layer    Max.-Flux-Residual            L2-New               L2-Old           Solver-Max-Delh
          0                 1          11            23   46     2       0.3225203843E+01      23   46    2       0.7640803668E+05      0.3112251660E+06      0.5841812880E+02      0.3225203843E+01
          0                 2           9            51  103     3       0.2459933394E+02      51  103    3       0.3091691093E+05      0.4423505236E+05      0.3112251660E+06      0.2459933394E+02
          0                 3           6            51  103     3      -0.2236350976E+01      51  103    3      -0.3091691151E+04      0.3129299246E+04      0.4423505236E+05     -0.2236350976E+01
          0                 4           2            25   77     2       0.3514364799E-03      28   51    2       0.7504469883E+00      0.8098067306E+00      0.3129299246E+04      0.3514364799E-03

    ------------------------------------------------
       NWT REQUIRED            4 OUTER ITERATIONS 
       AND A TOTAL OF         28 INNER ITERATIONS.
    ------------------------------------------------

 NO OUTPUT CONTROL FOR STRESS PERIOD   30   TIME STEP    2

 SOLVING FOR HEAD 
                                                   Max.-Head-Change                        Max.-Flux-Residual
  Residual-Control   Outer-Iter.   Inner-Iter.     Column Row Layer    Max.-Head-Change    Column Row Layer    Max.-Flux-Residual            L2-New               L2-Old           Solver-Max-Delh
          0                 1          11            51  103     3       0.3242109325E+01      23   46    2       0.4666854687E+05      0.2745319648E+06      0.8098067306E+00      0.3242109325E+01
          0                 2           9            66    4     2      -0.4643811973E+01      14    5    2       0.6168978548E+04      0.2826161411E+05      0.2745319648E+06     -0.4643811973E+01
          0                 3           5            66    4     2       0.1425272366E+00      66    4    2       0.5981353367E+02      0.7017912604E+02      0.2826161411E+05      0.1425272366E+00
          0                 4           2            66    4     2       0.8617399163E-02      66    4    2       0.3602823813E+01      0.4200935391E+01      0.7017912604E+02      0.8617399163E-02

    ------------------------------------------------
       NWT REQUIRED            4 OUTER ITERATIONS 
       AND A TOTAL OF         27 INNER ITERATIONS.
    ------------------------------------------------

 NO OUTPUT CONTROL FOR STRESS PERIOD   30   TIME STEP    3

 SOLVING FOR HEAD 
                                                   Max.-Head-Change                        Max.-Flux-Residual
  Residual-Control   Outer-Iter.   Inner-Iter.     Column Row Layer    Max.-Head-Change    Column Row Layer    Max.-Flux-Residual            L2-New               L2-Old           Solver-Max-Delh
          0                 1          11            66    4     2      -0.3508583971E+01      51  104    3       0.4057850624E+05      0.2548696810E+06      0.4200935391E+01     -0.3508583971E+01
          0                 2           9            51  104     3      -0.1689208676E+00      51  104    3      -0.4066326156E+04      0.2553923298E+05      0.2548696810E+06     -0.1689208676E+00
          0                 3           5            66    4     2       0.5684505383E-02      14    5    1       0.1319621755E+03      0.1668823596E+03      0.2553923298E+05      0.5684505383E-02

    ------------------------------------------------
       NWT REQUIRED            3 OUTER ITERATIONS 
       AND A TOTAL OF         25 INNER ITERATIONS.
    ------------------------------------------------

 NO OUTPUT CONTROL FOR STRESS PERIOD   30   TIME STEP    4

 SOLVING FOR HEAD 
                                                   Max.-Head-Change                        Max.-Flux-Residual
  Residual-Control   Outer-Iter.   Inner-Iter.     Column Row Layer    Max.-Head-Change    Column Row Layer    Max.-Flux-Residual            L2-New               L2-Old           Solver-Max-Delh
          0                 1          11            51  104     3       0.1772533347E+01      51  104    3       0.3873460093E+05      0.2417913746E+06      0.1668823596E+03      0.1772533347E+01
          0                 2           9            51  104     3      -0.1613707299E+00      51  104    3      -0.3880598913E+04      0.2418279433E+05      0.2417913746E+06     -0.1613707299E+00
          0                 3           5            92   77     2       0.1581581310E-02      90   66    3       0.3287033645E+01      0.1238512652E+02      0.2418279433E+05      0.1581581310E-02

    ------------------------------------------------
       NWT REQUIRED            3 OUTER ITERATIONS 
       AND A TOTAL OF         25 INNER ITERATIONS.
    ------------------------------------------------

 NO OUTPUT CONTROL FOR STRESS PERIOD   30   TIME STEP    5

 SOLVING FOR HEAD 
                                                   Max.-Head-Change                        Max.-Flux-Residual
  Residual-Control   Outer-Iter.   Inner-Iter.     Column Row Layer    Max.-Head-Change    Column Row Layer    Max.-Flux-Residual            L2-New               L2-Old           Solver-Max-Delh
          0                 1          11            51  104     3       0.1696742126E+01      51  104    3       0.3701154482E+05      0.2319106168E+06      0.1238512652E+02      0.1696742126E+01
          0                 2           9            51  104     3      -0.1544449557E+00      51  104    3      -0.3707171212E+04      0.2319441174E+05      0.2319106168E+06     -0.1544449557E+00
          0                 3           5            25   77     2       0.1532186169E-02      25   46    2      -0.4487009756E+01      0.1293248925E+02      0.2319441174E+05      0.1532186169E-02

    ------------------------------------------------
       NWT REQUIRED            3 OUTER ITERATIONS 
       AND A TOTAL OF         25 INNER ITERATIONS.
    ------------------------------------------------

 NO OUTPUT CONTROL FOR STRESS PERIOD   30   TIME STEP    6

 SOLVING FOR HEAD 
                                                   Max.-Head-Change                        Max.-Flux-Residual
  Residual-Control   Outer-Iter.   Inner-Iter.     Column Row Layer    Max.-Head-Change    Column Row Layer    Max.-Flux-Residual            L2-New               L2-Old           Solver-Max-Delh
          0                 1          11            51  104     3       0.1627156157E+01      51  104    3       0.3543013752E+05      0.2237913182E+06      0.1293248925E+02      0.1627156157E+01
          0                 2           9            73   14     1      -0.2232555943E+01      73   14    1      -0.1586452745E+05      0.2736857296E+05      0.2237913182E+06     -0.2232555943E+01
          0                 3           6            73   14     1       0.1947441588E+00      73   14    1       0.1524653604E+04      0.1535230816E+04      0.2736857296E+05      0.1947441588E+00
          0                 4           2            73   14     1       0.7084655430E-03      73   14    1       0.5385458212E+01      0.5395853804E+01      0.1535230816E+04      0.7084655430E-03

    ------------------------------------------------
       NWT REQUIRED            4 OUTER ITERATIONS 
       AND A TOTAL OF         28 INNER ITERATIONS.
    ------------------------------------------------

 NO OUTPUT CONTROL FOR STRESS PERIOD   30   TIME STEP    7

 SOLVING FOR HEAD 
                                                   Max.-Head-Change                        Max.-Flux-Residual
  Residual-Control   Outer-Iter.   Inner-Iter.     Column Row Layer    Max.-Head-Change    Column Row Layer    Max.-Flux-Residual            L2-New               L2-Old           Solver-Max-Delh
          0                 1          11            51  104     3       0.1563173730E+01      51  104    3       0.3397809029E+05      0.2176980836E+06      0.5395853804E+01      0.1563173730E+01
          0                 2           9            70   19     2       0.4217432491E+00      70   19    2       0.1677524128E+05      0.2855955501E+05      0.2176980836E+06      0.4217432491E+00
          0                 3           5            25   77     2       0.1525285108E-02      73   14    1       0.3566504665E+01      0.1267336957E+02      0.2855955501E+05      0.1525285108E-02

    ------------------------------------------------
       NWT REQUIRED            3 OUTER ITERATIONS 
       AND A TOTAL OF         25 INNER ITERATIONS.
    ------------------------------------------------

 NO OUTPUT CONTROL FOR STRESS PERIOD   30   TIME STEP    8

 SOLVING FOR HEAD 
                                                   Max.-Head-Change                        Max.-Flux-Residual
  Residual-Control   Outer-Iter.   Inner-Iter.     Column Row Layer    Max.-Head-Change    Column Row Layer    Max.-Flux-Residual            L2-New               L2-Old           Solver-Max-Delh
          0                 1          11            51  104     3       0.1504249901E+01      51  104    3       0.3264291532E+05      0.2113350364E+06      0.1267336957E+02      0.1504249901E+01
          0                 2           9            51  104     3      -0.1368691821E+00      51  104    3      -0.3267903384E+04      0.2115317398E+05      0.2113350364E+06     -0.1368691821E+00
          0                 3           6            22   35     2       0.5668365674E-02      22   35    2       0.3480723788E+03      0.4648632847E+03      0.2115317398E+05      0.5668365674E-02

    ------------------------------------------------
       NWT REQUIRED            3 OUTER ITERATIONS 
       AND A TOTAL OF         26 INNER ITERATIONS.
    ------------------------------------------------

 NO OUTPUT CONTROL FOR STRESS PERIOD   30   TIME STEP    9

 SOLVING FOR HEAD 
                                                   Max.-Head-Change                        Max.-Flux-Residual
  Residual-Control   Outer-Iter.   Inner-Iter.     Column Row Layer    Max.-Head-Change    Column Row Layer    Max.-Flux-Residual            L2-New               L2-Old           Solver-Max-Delh
          0                 1          11            51  104     3       0.1449890045E+01      51  104    3       0.3141324485E+05      0.2056416814E+06      0.4648632847E+03      0.1449890045E+01
          0                 2           9            51  104     3      -0.1319093825E+00      13    8    2       0.9511381261E+04      0.2266319577E+05      0.2056416814E+06     -0.1319093825E+00
          0                 3           5            22   35     2      -0.3093823753E-02      22   35    2      -0.1277461322E+03      0.1330694144E+03      0.2266319577E+05     -0.3093823753E-02

    ------------------------------------------------
       NWT REQUIRED            3 OUTER ITERATIONS 
       AND A TOTAL OF         25 INNER ITERATIONS.
    ------------------------------------------------

 NO OUTPUT CONTROL FOR STRESS PERIOD   30   TIME STEP   10

 SOLVING FOR HEAD 
                                                   Max.-Head-Change                        Max.-Flux-Residual
  Residual-Control   Outer-Iter.   Inner-Iter.     Column Row Layer    Max.-Head-Change    Column Row Layer    Max.-Flux-Residual            L2-New               L2-Old           Solver-Max-Delh
          0                 1          11            51  104     3       0.1399649223E+01      51  104    3       0.3027875439E+05      0.2005358373E+06      0.1330694144E+03      0.1399649223E+01
          0                 2           9            90   66     1      -0.1794970025E+00      51  104    3      -0.3030444651E+04      0.2025428771E+05      0.2005358373E+06     -0.1794970025E+00
          0                 3           5            90   66     1       0.1545022300E-01      90   66    1       0.1315977925E+03      0.1401965420E+03      0.2025428771E+05      0.1545022300E-01
          0                 4           2            25   77     2       0.3635336197E-03      90   66    1       0.6024888940E+00      0.6114599290E+00      0.1401965420E+03      0.3635336197E-03

    ------------------------------------------------
       NWT REQUIRED            4 OUTER ITERATIONS 
       AND A TOTAL OF         27 INNER ITERATIONS.
    ------------------------------------------------

 NO OUTPUT CONTROL FOR STRESS PERIOD   30   TIME STEP   11

 SOLVING FOR HEAD 
                                                   Max.-Head-Change                        Max.-Flux-Residual
  Residual-Control   Outer-Iter.   Inner-Iter.     Column Row Layer    Max.-Head-Change    Column Row Layer    Max.-Flux-Residual            L2-New               L2-Old           Solver-Max-Delh
          0                 1          11            51  103     3       0.1354848268E+01      51  104    3       0.2923020902E+05      0.1962013533E+06      0.6114599290E+00      0.1354848268E+01
          0                 2           9            51  103     3      -0.1232421298E+00      51  104    3      -0.2925185188E+04      0.1969433146E+05      0.1962013533E+06     -0.1232421298E+00
          0                 3           5            25   77     2       0.1542384209E-02      13    8    1       0.6555776465E+02      0.9265671205E+02      0.1969433146E+05      0.1542384209E-02

    ------------------------------------------------
       NWT REQUIRED            3 OUTER ITERATIONS 
       AND A TOTAL OF         25 INNER ITERATIONS.
    ------------------------------------------------

 OUTPUT CONTROL FOR STRESS PERIOD   30   TIME STEP   12
    SAVE BUDGET
 UBDSV1 SAVING "         STORAGE" ON UNIT  39 AT TIME STEP 12, STRESS PERIOD  30
 UBDSV2 SAVING "   CONSTANT HEAD" ON UNIT  39 AT TIME STEP 12, STRESS PERIOD  30
 UBDSV1 SAVING "FLOW RIGHT FACE " ON UNIT  39 AT TIME STEP 12, STRESS PERIOD  30
 UBDSV1 SAVING "FLOW FRONT FACE " ON UNIT  39 AT TIME STEP 12, STRESS PERIOD  30
 UBDSV1 SAVING "FLOW LOWER FACE " ON UNIT  39 AT TIME STEP 12, STRESS PERIOD  30
 UBDSV3 SAVING "              ET" ON UNIT  39 AT TIME STEP 12, STRESS PERIOD  30
 UBDSV3 SAVING "        RECHARGE" ON UNIT  39 AT TIME STEP 12, STRESS PERIOD  30

 INTERPOLATION FOR HEAD OBS# 8276, ID 2927-31-29   CHANGED BECAUSE AT LEAST ONE
 NEIGHBORING CELL REQUIRED FOR INTERPOLATION IS DRY OR INACTIVE (OBS2BAS7SE)

 INTERPOLATION FOR HEAD OBS# 8281, ID 2615-31-1    CHANGED BECAUSE AT LEAST ONE
 NEIGHBORING CELL REQUIRED FOR INTERPOLATION IS DRY OR INACTIVE (OBS2BAS7SE)
1
  VOLUMETRIC BUDGET FOR ENTIRE MODEL AT END OF TIME STEP   12, STRESS PERIOD  30
  ------------------------------------------------------------------------------

     CUMULATIVE VOLUMES      L**3       RATES FOR THIS TIME STEP      L**3/T
     ------------------                 ------------------------

           IN:                                      IN:
           ---                                      ---
             STORAGE = 25347250176.0000               STORAGE =     3714862.5000
       CONSTANT HEAD = 10206138368.0000         CONSTANT HEAD =     1168043.5000
               WELLS =   324179520.0000                 WELLS =           0.0000
                  ET =           0.0000                    ET =           0.0000
            RECHARGE =180062683136.0000              RECHARGE =    16774495.0000

            TOTAL IN =215940251648.0000              TOTAL IN =    21657400.0000

          OUT:                                     OUT:
          ----                                     ----
             STORAGE = 48005881856.0000               STORAGE =     4005045.2500
       CONSTANT HEAD = 65158737920.0000         CONSTANT HEAD =     7277953.0000
               WELLS =   452948032.0000                 WELLS =       73832.0000
                  ET =102323183616.0000                    ET =    10300595.0000
            RECHARGE =           0.0000              RECHARGE =           0.0000

           TOTAL OUT =215940759552.0000             TOTAL OUT =    21657424.0000

            IN - OUT =     -507904.0000              IN - OUT =         -24.0000

 PERCENT DISCREPANCY =          -0.00     PERCENT DISCREPANCY =          -0.00






         TIME SUMMARY AT END OF TIME STEP   12 IN STRESS PERIOD   30
                    SECONDS     MINUTES      HOURS       DAYS        YEARS
                    -----------------------------------------------------------
   TIME STEP LENGTH 2.62800E+06  43800.      730.00      30.417     8.32763E-02
 STRESS PERIOD TIME 3.15360E+07 5.25600E+05  8760.0      365.00     0.99932    
         TOTAL TIME 9.46772E+08 1.57795E+07 2.62992E+05  10958.      30.001    
1
1
                            STRESS PERIOD NO.   31, LENGTH =   365.0000    
                            -----------------------------------------------

                              NUMBER OF TIME STEPS =    12

                               MULTIPLIER FOR DELT =     1.000

                            INITIAL TIME STEP SIZE =   30.41667    

 WELL NO.  LAYER   ROW   COL   STRESS RATE         
 --------------------------------------------------
      1      3     33     44      -6104.    
      2      1     33     44     -0.1888E+05

      2 WELLS

 REUSING SURF FROM LAST STRESS PERIOD

 REUSING EVTR FROM LAST STRESS PERIOD

 REUSING EXDP FROM LAST STRESS PERIOD



                           RECHARGE
 READING ON UNIT   16 WITH FORMAT: (15F5.0)            


     63 TIME-VARIANT SPECIFIED-HEAD CELLS

 SOLVING FOR HEAD 
                                                   Max.-Head-Change                        Max.-Flux-Residual
  Residual-Control   Outer-Iter.   Inner-Iter.     Column Row Layer    Max.-Head-Change    Column Row Layer    Max.-Flux-Residual            L2-New               L2-Old           Solver-Max-Delh
          0                 1          11            36   65     1       0.2540264949E+02      24   22    1       0.1387780826E+06      0.4079490161E+06      0.9265671205E+02      0.2540264949E+02
          0                 2           9            36   65     1      -0.6655697579E+01      36   65    2      -0.2012902028E+06      0.2055291246E+06      0.4079490161E+06     -0.6655697579E+01
          0                 3           6            35   65     2       0.3036673587E+00      36   65    2      -0.2670769878E+04      0.2987456601E+04      0.2055291246E+06      0.3036673587E+00
          0                 4           5            35   65     1       0.3583566482E-01      35   65    2       0.6709078036E+02      0.1286234228E+03      0.2987456601E+04      0.3583566482E-01
          0                 5           4            35   65     1       0.4192588744E-02      35   65    2       0.7008377935E+01      0.1322703538E+02      0.1286234228E+03      0.4192588744E-02

    ------------------------------------------------
       NWT REQUIRED            5 OUTER ITERATIONS 
       AND A TOTAL OF         35 INNER ITERATIONS.
    ------------------------------------------------

 NO OUTPUT CONTROL FOR STRESS PERIOD   31   TIME STEP    1

 SOLVING FOR HEAD 
                                                   Max.-Head-Change                        Max.-Flux-Residual
  Residual-Control   Outer-Iter.   Inner-Iter.     Column Row Layer    Max.-Head-Change    Column Row Layer    Max.-Flux-Residual            L2-New               L2-Old           Solver-Max-Delh
          0                 1          11            72   48     1      -0.1499062553E+01      72   48    1      -0.6514531207E+05      0.2780236529E+06      0.1322703538E+02     -0.1499062553E+01
          0                 2           9            55   83     2      -0.1357176133E+00      72   48    1       0.6464284254E+04      0.2775899314E+05      0.2780236529E+06     -0.1357176133E+00
          0                 3           5            25   77     2       0.1547316211E-02      73   48    1      -0.7037247907E+01      0.1470478537E+02      0.2775899314E+05      0.1547316211E-02

    ------------------------------------------------
       NWT REQUIRED            3 OUTER ITERATIONS 
       AND A TOTAL OF         25 INNER ITERATIONS.
    ------------------------------------------------

 NO OUTPUT CONTROL FOR STRESS PERIOD   31   TIME STEP    2

 SOLVING FOR HEAD 
                                                   Max.-Head-Change                        Max.-Flux-Residual
  Residual-Control   Outer-Iter.   Inner-Iter.     Column Row Layer    Max.-Head-Change    Column Row Layer    Max.-Flux-Residual            L2-New               L2-Old           Solver-Max-Delh
          0                 1          11            55   83     2       0.1448735303E+01      72   48    1      -0.5630787080E+05      0.2418175685E+06      0.1470478537E+02      0.1448735303E+01
          0                 2           9            55   83     2      -0.1318816483E+00      72   48    1       0.6085628123E+04      0.2426112336E+05      0.2418175685E+06     -0.1318816483E+00
          0                 3           5            41   22     3      -0.9113535972E-02      41   22    3      -0.2655086842E+02      0.4446163892E+02      0.2426112336E+05     -0.9113535972E-02

    ------------------------------------------------
       NWT REQUIRED            3 OUTER ITERATIONS 
       AND A TOTAL OF         25 INNER ITERATIONS.
    ------------------------------------------------

 NO OUTPUT CONTROL FOR STRESS PERIOD   31   TIME STEP    3

 INTERPOLATION FOR HEAD OBS# 8302, ID 1471-31-113  CHANGED BECAUSE AT LEAST ONE
 NEIGHBORING CELL REQUIRED FOR INTERPOLATION IS DRY OR INACTIVE (OBS2BAS7SE)

 SOLVING FOR HEAD 
                                                   Max.-Head-Change                        Max.-Flux-Residual
  Residual-Control   Outer-Iter.   Inner-Iter.     Column Row Layer    Max.-Head-Change    Column Row Layer    Max.-Flux-Residual            L2-New               L2-Old           Solver-Max-Delh
          0                 1          11            55   83     2       0.1407373693E+01      72   48    1      -0.4889504857E+05      0.2235843762E+06      0.4446163892E+02      0.1407373693E+01
          0                 2           9            55   83     2      -0.1281113818E+00      72   48    1       0.4870744017E+04      0.2237750401E+05      0.2235843762E+06     -0.1281113818E+00
          0                 3           5            25   77     2       0.1574098708E-02      70   49    2       0.1037984226E+02      0.1546858584E+02      0.2237750401E+05      0.1574098708E-02

    ------------------------------------------------
       NWT REQUIRED            3 OUTER ITERATIONS 
       AND A TOTAL OF         25 INNER ITERATIONS.
    ------------------------------------------------

 NO OUTPUT CONTROL FOR STRESS PERIOD   31   TIME STEP    4

 SOLVING FOR HEAD 
                                                   Max.-Head-Change                        Max.-Flux-Residual
  Residual-Control   Outer-Iter.   Inner-Iter.     Column Row Layer    Max.-Head-Change    Column Row Layer    Max.-Flux-Residual            L2-New               L2-Old           Solver-Max-Delh
          0                 1          11            55   83     2       0.1366856890E+01      72   48    1      -0.4107929015E+05      0.2113215587E+06      0.1546858584E+02      0.1366856890E+01
          0                 2           9            55   83     2      -0.1244180424E+00      69   47    1       0.4713115698E+04      0.2143773967E+05      0.2113215587E+06     -0.1244180424E+00
          0                 3           5            25   77     2       0.1577844002E-02      55   85    3      -0.5259796352E+01      0.1276716253E+02      0.2143773967E+05      0.1577844002E-02

    ------------------------------------------------
       NWT REQUIRED            3 OUTER ITERATIONS 
       AND A TOTAL OF         25 INNER ITERATIONS.
    ------------------------------------------------

 NO OUTPUT CONTROL FOR STRESS PERIOD   31   TIME STEP    5

 SOLVING FOR HEAD 
                                                   Max.-Head-Change                        Max.-Flux-Residual
  Residual-Control   Outer-Iter.   Inner-Iter.     Column Row Layer    Max.-Head-Change    Column Row Layer    Max.-Flux-Residual            L2-New               L2-Old           Solver-Max-Delh
          0                 1          11            55   83     2       0.1327262134E+01      72   48    1      -0.3470717438E+05      0.2021096156E+06      0.1276716253E+02      0.1327262134E+01
          0                 2           9            70   19     1      -0.3509871049E+00      22   51    2      -0.4076182475E+04      0.2174110576E+05      0.2021096156E+06     -0.3509871049E+00
          0                 3           5            70   19     1       0.3059621020E-01      70   19    1       0.2615698938E+03      0.3097922043E+03      0.2174110576E+05      0.3059621020E-01
          0                 4           2            25   77     2       0.3701296770E-03      70   19    1       0.9167417064E+00      0.9241393652E+00      0.3097922043E+03      0.3701296770E-03

    ------------------------------------------------
       NWT REQUIRED            4 OUTER ITERATIONS 
       AND A TOTAL OF         27 INNER ITERATIONS.
    ------------------------------------------------

 NO OUTPUT CONTROL FOR STRESS PERIOD   31   TIME STEP    6

 SOLVING FOR HEAD 
                                                   Max.-Head-Change                        Max.-Flux-Residual
  Residual-Control   Outer-Iter.   Inner-Iter.     Column Row Layer    Max.-Head-Change    Column Row Layer    Max.-Flux-Residual            L2-New               L2-Old           Solver-Max-Delh
          0                 1          11            55   83     2       0.1288651877E+01      72   48    1      -0.2953617948E+05      0.1948373463E+06      0.9241393652E+00      0.1288651877E+01
          0                 2           9            55   83     2      -0.1172896643E+00      72   48    1       0.2948944033E+04      0.1948616116E+05      0.1948373463E+06     -0.1172896643E+00
          0                 3           6            21   32     1      -0.3410339788E-02      21   32    1      -0.7297753473E+02      0.7510829111E+02      0.1948616116E+05     -0.3410339788E-02

    ------------------------------------------------
       NWT REQUIRED            3 OUTER ITERATIONS 
       AND A TOTAL OF         26 INNER ITERATIONS.
    ------------------------------------------------

 NO OUTPUT CONTROL FOR STRESS PERIOD   31   TIME STEP    7

 SOLVING FOR HEAD 
                                                   Max.-Head-Change                        Max.-Flux-Residual
  Residual-Control   Outer-Iter.   Inner-Iter.     Column Row Layer    Max.-Head-Change    Column Row Layer    Max.-Flux-Residual            L2-New               L2-Old           Solver-Max-Delh
          0                 1          11            55   83     2       0.1251050409E+01      55   83    2       0.2685560866E+05      0.1892240454E+06      0.7510829111E+02      0.1251050409E+01
          0                 2           9            55   83     2      -0.1138656460E+00      21   32    1      -0.3113758805E+04      0.1922090611E+05      0.1892240454E+06     -0.1138656460E+00
          0                 3           6            21   32     2       0.4148372832E-02      21   32    2       0.2555463887E+03      0.2629986298E+03      0.1922090611E+05      0.4148372832E-02

    ------------------------------------------------
       NWT REQUIRED            3 OUTER ITERATIONS 
       AND A TOTAL OF         26 INNER ITERATIONS.
    ------------------------------------------------

 NO OUTPUT CONTROL FOR STRESS PERIOD   31   TIME STEP    8

 SOLVING FOR HEAD 
                                                   Max.-Head-Change                        Max.-Flux-Residual
  Residual-Control   Outer-Iter.   Inner-Iter.     Column Row Layer    Max.-Head-Change    Column Row Layer    Max.-Flux-Residual            L2-New               L2-Old           Solver-Max-Delh
          0                 1          11            55   83     2       0.1214487381E+01      55   83    2       0.2607233052E+05      0.1842953687E+06      0.2629986298E+03      0.1214487381E+01
          0                 2           9            55   83     2      -0.1105293324E+00      55   83    2      -0.2611056593E+04      0.1848888250E+05      0.1842953687E+06     -0.1105293324E+00
          0                 3           5            21   32     2      -0.2636245083E-02      21   32    2      -0.1160660258E+03      0.1209458068E+03      0.1848888250E+05     -0.2636245083E-02

    ------------------------------------------------
       NWT REQUIRED            3 OUTER ITERATIONS 
       AND A TOTAL OF         25 INNER ITERATIONS.
    ------------------------------------------------

 NO OUTPUT CONTROL FOR STRESS PERIOD   31   TIME STEP    9

 INTERPOLATION FOR HEAD OBS#  628, ID 3019-31-297  CHANGED BECAUSE AT LEAST ONE
 NEIGHBORING CELL REQUIRED FOR INTERPOLATION IS DRY OR INACTIVE (OBS2BAS7SE)

 SOLVING FOR HEAD 
                                                   Max.-Head-Change                        Max.-Flux-Residual
  Residual-Control   Outer-Iter.   Inner-Iter.     Column Row Layer    Max.-Head-Change    Column Row Layer    Max.-Flux-Residual            L2-New               L2-Old           Solver-Max-Delh
          0                 1          11            55   83     2       0.1178996092E+01      55   83    2       0.2531081889E+05      0.1800924177E+06      0.1209458068E+03      0.1178996092E+01
          0                 2           9            55   83     2      -0.1072941853E+00      27   41    1      -0.4044068906E+04      0.1861885643E+05      0.1800924177E+06     -0.1072941853E+00
          0                 3           5            25   77     2       0.1592850518E-02      55   97    2      -0.2225018943E+01      0.9578753235E+01      0.1861885643E+05      0.1592850518E-02

    ------------------------------------------------
       NWT REQUIRED            3 OUTER ITERATIONS 
       AND A TOTAL OF         25 INNER ITERATIONS.
    ------------------------------------------------

 NO OUTPUT CONTROL FOR STRESS PERIOD   31   TIME STEP   10

 SOLVING FOR HEAD 
                                                   Max.-Head-Change                        Max.-Flux-Residual
  Residual-Control   Outer-Iter.   Inner-Iter.     Column Row Layer    Max.-Head-Change    Column Row Layer    Max.-Flux-Residual            L2-New               L2-Old           Solver-Max-Delh
          0                 1          11            55   83     2       0.1144583827E+01      55   83    2       0.2457153236E+05      0.1763857297E+06      0.9578753235E+01      0.1144583827E+01
          0                 2           9            55   83     2      -0.1041575700E+00      55   83    2      -0.2460480717E+04      0.1763853013E+05      0.1763857297E+06     -0.1041575700E+00
          0                 3           5            25   77     2       0.1595179967E-02      55   97    2      -0.2189332733E+01      0.9494160136E+01      0.1763853013E+05      0.1595179967E-02

    ------------------------------------------------
       NWT REQUIRED            3 OUTER ITERATIONS 
       AND A TOTAL OF         25 INNER ITERATIONS.
    ------------------------------------------------

 NO OUTPUT CONTROL FOR STRESS PERIOD   31   TIME STEP   11

 INTERPOLATION FOR HEAD OBS#  632, ID 3012-31-339  CHANGED BECAUSE AT LEAST ONE
 NEIGHBORING CELL REQUIRED FOR INTERPOLATION IS DRY OR INACTIVE (OBS2BAS7SE)

 SOLVING FOR HEAD 
                                                   Max.-Head-Change                        Max.-Flux-Residual
  Residual-Control   Outer-Iter.   Inner-Iter.     Column Row Layer    Max.-Head-Change    Column Row Layer    Max.-Flux-Residual            L2-New               L2-Old           Solver-Max-Delh
          0                 1          11            55   83     2       0.1111255022E+01      55   83    2       0.2385470977E+05      0.1731097775E+06      0.9494160136E+01      0.1111255022E+01
          0                 2           9            55   83     2      -0.1011197455E+00      55   83    2      -0.2388566513E+04      0.1731054850E+05      0.1731097775E+06     -0.1011197455E+00
          0                 3           5            25   77     2       0.1597250462E-02      55   97    2      -0.2153631380E+01      0.9462033764E+01      0.1731054850E+05      0.1597250462E-02

    ------------------------------------------------
       NWT REQUIRED            3 OUTER ITERATIONS 
       AND A TOTAL OF         25 INNER ITERATIONS.
    ------------------------------------------------

 OUTPUT CONTROL FOR STRESS PERIOD   31   TIME STEP   12
    SAVE BUDGET
    SAVE HEAD FOR LAYERS:   1  2  3
 UBDSV1 SAVING "         STORAGE" ON UNIT  39 AT TIME STEP 12, STRESS PERIOD  31
 UBDSV2 SAVING "   CONSTANT HEAD" ON UNIT  39 AT TIME STEP 12, STRESS PERIOD  31
 UBDSV1 SAVING "FLOW RIGHT FACE " ON UNIT  39 AT TIME STEP 12, STRESS PERIOD  31
 UBDSV1 SAVING "FLOW FRONT FACE " ON UNIT  39 AT TIME STEP 12, STRESS PERIOD  31
 UBDSV1 SAVING "FLOW LOWER FACE " ON UNIT  39 AT TIME STEP 12, STRESS PERIOD  31
 UBDSV3 SAVING "              ET" ON UNIT  39 AT TIME STEP 12, STRESS PERIOD  31
 UBDSV3 SAVING "        RECHARGE" ON UNIT  39 AT TIME STEP 12, STRESS PERIOD  31

 HEAD WILL BE SAVED ON UNIT   31 AT END OF TIME STEP   12, STRESS PERIOD   31
1
  VOLUMETRIC BUDGET FOR ENTIRE MODEL AT END OF TIME STEP   12, STRESS PERIOD  31
  ------------------------------------------------------------------------------

     CUMULATIVE VOLUMES      L**3       RATES FOR THIS TIME STEP      L**3/T
     ------------------                 ------------------------

           IN:                                      IN:
           ---                                      ---
             STORAGE = 26418051072.0000               STORAGE =     2496283.2500
       CONSTANT HEAD = 10619179008.0000         CONSTANT HEAD =     1102389.2500
               WELLS =   324179520.0000                 WELLS =           0.0000
                  ET =           0.0000                    ET =           0.0000
            RECHARGE =186836025344.0000              RECHARGE =    18557084.0000

            TOTAL IN =224197427200.0000              TOTAL IN =    22155756.0000

          OUT:                                     OUT:
          ----                                     ----
             STORAGE = 49902067712.0000               STORAGE =     4881783.0000
       CONSTANT HEAD = 67865972736.0000         CONSTANT HEAD =     7463453.0000
               WELLS =   462069184.0000                 WELLS =       24989.0000
                  ET =105967845376.0000                    ET =     9785557.0000
            RECHARGE =           0.0000              RECHARGE =           0.0000

           TOTAL OUT =224197967872.0000             TOTAL OUT =    22155782.0000

            IN - OUT =     -540672.0000              IN - OUT =         -26.0000

 PERCENT DISCREPANCY =          -0.00     PERCENT DISCREPANCY =          -0.00






         TIME SUMMARY AT END OF TIME STEP   12 IN STRESS PERIOD   31
                    SECONDS     MINUTES      HOURS       DAYS        YEARS
                    -----------------------------------------------------------
   TIME STEP LENGTH 2.62800E+06  43800.      730.00      30.417     8.32763E-02
 STRESS PERIOD TIME 3.15360E+07 5.25600E+05  8760.0      365.00     0.99932    
         TOTAL TIME 9.78308E+08 1.63051E+07 2.71752E+05  11323.      31.001    
1
1
                            STRESS PERIOD NO.   32, LENGTH =   365.0000    
                            -----------------------------------------------

                              NUMBER OF TIME STEPS =    12

                               MULTIPLIER FOR DELT =     1.000

                            INITIAL TIME STEP SIZE =   30.41667    

 WELL NO.  LAYER   ROW   COL   STRESS RATE         
 --------------------------------------------------
      1      1     33     46     -0.9223E+05
      2      2     33     46     -0.1757E+05

      2 WELLS

 REUSING SURF FROM LAST STRESS PERIOD

 REUSING EVTR FROM LAST STRESS PERIOD

 REUSING EXDP FROM LAST STRESS PERIOD



                           RECHARGE
 READING ON UNIT   16 WITH FORMAT: (15F5.0)            


     63 TIME-VARIANT SPECIFIED-HEAD CELLS

 SOLVING FOR HEAD 
                                                   Max.-Head-Change                        Max.-Flux-Residual
  Residual-Control   Outer-Iter.   Inner-Iter.     Column Row Layer    Max.-Head-Change    Column Row Layer    Max.-Flux-Residual            L2-New               L2-Old           Solver-Max-Delh
          0                 1          11            92   77     2       0.5214936427E+02      30   20    1       0.1301666807E+06      0.4996218592E+06      0.9462033764E+01      0.5214936427E+02
          0                 2          10            92   77     2       0.4954642836E+02      92   76    2      -0.1983582078E+05      0.5573940975E+05      0.4996218592E+06      0.4954642836E+02
          1                 2           0            92   77     2       0.4459178434E+02      92   77    2      -0.1264321914E+07      0.1265626337E+07      0.5573940975E+05      0.4954642836E+02
          2                 2           0            92   77     2       0.4013260485E+02      92   77    2      -0.1114033509E+07      0.1115059468E+07      0.1265626337E+07      0.4954642836E+02
          3                 2           0            92   77     2       0.3611934341E+02      92   77    2      -0.9794596714E+06      0.9802904315E+06      0.1115059468E+07      0.4954642836E+02
          4                 2           0            92   77     2       0.3250740820E+02      92   77    2      -0.8588986561E+06      0.8596084972E+06      0.9802904315E+06      0.4954642836E+02
          5                 2           0            92   77     2       0.2925666661E+02      92   77    2      -0.7508436481E+06      0.7515014154E+06      0.8596084972E+06      0.4954642836E+02
          6                 2           0            92   77     2       0.2633099925E+02      92   77    2      -0.6539585646E+06      0.6546309969E+06      0.7515014154E+06      0.4954642836E+02
          7                 2           0            92   77     2       0.2369789870E+02      92   77    2      -0.5670571730E+06      0.5678122974E+06      0.6546309969E+06      0.4954642836E+02
          8                 2           0            92   77     2       0.2132810826E+02      92   77    2      -0.4890850193E+06      0.4899959741E+06      0.5678122974E+06      0.4954642836E+02
                                                   Max.-Head-Change                        Max.-Flux-Residual
  Residual-Control   Outer-Iter.   Inner-Iter.     Column Row Layer    Max.-Head-Change    Column Row Layer    Max.-Flux-Residual            L2-New               L2-Old           Solver-Max-Delh
          9                 2           0            92   77     2       0.1919529693E+02      92   77    2      -0.4191037513E+06      0.4202535358E+06      0.4899959741E+06      0.4954642836E+02
         10                 2           0            92   77     2       0.1727576678E+02      92   77    2      -0.3562774830E+06      0.3577654087E+06      0.4202535358E+06      0.4954642836E+02
         11                 2           0            92   77     2       0.1554818969E+02      92   77    2      -0.2998609089E+06      0.3018120760E+06      0.3577654087E+06      0.4954642836E+02
         12                 2           0            92   77     2       0.1399337035E+02      92   77    2      -0.2491889168E+06      0.2517690558E+06      0.3018120760E+06      0.4954642836E+02
         13                 2           0            92   77     2       0.1259403298E+02      92   77    2      -0.2036674930E+06      0.2071077973E+06      0.2517690558E+06      0.4954642836E+02
         14                 2           0            92   77     2       0.1133462938E+02      92   77    2      -0.1627657406E+06      0.1674072090E+06      0.2071077973E+06      0.4954642836E+02
         15                 2           0            92   77     2       0.1020116617E+02      92   77    2      -0.1260088621E+06      0.1323871323E+06      0.1674072090E+06      0.4954642836E+02
          0                 3          10            92   77     2      -0.3191971645E+01      92   77    2      -0.9297197738E+05      0.1019920691E+06      0.1323871323E+06     -0.3191971645E+01
          0                 4           5            91   77     2       0.1454746651E+00      92   77    2      -0.1615233991E+03      0.2213429937E+03      0.1019920691E+06      0.1454746651E+00
          0                 5           3            91   77     2      -0.6224958449E-02      91   76    2       0.9873308098E+01      0.1255078437E+02      0.2213429937E+03     -0.6224958449E-02

    ------------------------------------------------
       NWT REQUIRED            5 OUTER ITERATIONS 
       AND A TOTAL OF         39 INNER ITERATIONS.
    ------------------------------------------------

 NO OUTPUT CONTROL FOR STRESS PERIOD   32   TIME STEP    1

 SOLVING FOR HEAD 
                                                   Max.-Head-Change                        Max.-Flux-Residual
  Residual-Control   Outer-Iter.   Inner-Iter.     Column Row Layer    Max.-Head-Change    Column Row Layer    Max.-Flux-Residual            L2-New               L2-Old           Solver-Max-Delh
          0                 1          11            53  106     3       0.2723717803E+01      81   45    1       0.6247799003E+05      0.3590359841E+06      0.1255078437E+02      0.2723717803E+01
          0                 2          10            65    7     2       0.6475841138E+00      81   45    1      -0.6256872882E+04      0.3626169240E+05      0.3590359841E+06      0.6475841138E+00
          0                 3           6            65    7     2      -0.5736965415E+00      65    7    2      -0.1637777725E+05      0.1637825188E+05      0.3626169240E+05     -0.5736965415E+00
          0                 4           2            65    7     2      -0.5189351286E-01      65    7    2      -0.1480086947E+04      0.1480135152E+04      0.1637825188E+05     -0.5189351286E-01
          0                 5           2            65    7     2      -0.4667892944E-02      65    7    2      -0.1331115117E+03      0.1331181572E+03      0.1480135152E+04     -0.4667892944E-02

    ------------------------------------------------
       NWT REQUIRED            5 OUTER ITERATIONS 
       AND A TOTAL OF         31 INNER ITERATIONS.
    ------------------------------------------------

 NO OUTPUT CONTROL FOR STRESS PERIOD   32   TIME STEP    2

 INTERPOLATION FOR HEAD OBS# 3401, ID 1428-32-85   CHANGED BECAUSE AT LEAST ONE
 NEIGHBORING CELL REQUIRED FOR INTERPOLATION IS DRY OR INACTIVE (OBS2BAS7SE)

 INTERPOLATION FOR HEAD OBS# 6992, ID 683-32-61    CHANGED BECAUSE AT LEAST ONE
 NEIGHBORING CELL REQUIRED FOR INTERPOLATION IS DRY OR INACTIVE (OBS2BAS7SE)

 SOLVING FOR HEAD 
                                                   Max.-Head-Change                        Max.-Flux-Residual
  Residual-Control   Outer-Iter.   Inner-Iter.     Column Row Layer    Max.-Head-Change    Column Row Layer    Max.-Flux-Residual            L2-New               L2-Old           Solver-Max-Delh
          0                 1          11            53  106     3       0.2563914108E+01      81   45    1       0.6001213064E+05      0.3181306480E+06      0.1331181572E+03      0.2563914108E+01
          0                 2          10            65    7     2      -0.7179726828E+01      81   45    1      -0.6009500778E+04      0.3213516982E+05      0.3181306480E+06     -0.7179726828E+01
          0                 3           5            65    7     2       0.3377784919E+00      65    7    2       0.1955090253E+03      0.2842542860E+03      0.3213516982E+05      0.3377784919E+00
          0                 4           2            65    7     2       0.1474886423E-01      65    7    2       0.8535642022E+01      0.8538310301E+01      0.2842542860E+03      0.1474886423E-01
          0                 5           2            65    7     2       0.6427287453E-03      65    7    2       0.3719243049E+00      0.4102473818E+00      0.8538310301E+01      0.6427287453E-03

    ------------------------------------------------
       NWT REQUIRED            5 OUTER ITERATIONS 
       AND A TOTAL OF         30 INNER ITERATIONS.
    ------------------------------------------------

 NO OUTPUT CONTROL FOR STRESS PERIOD   32   TIME STEP    3

 INTERPOLATION FOR HEAD OBS# 8347, ID 3016-32-94   CHANGED BECAUSE AT LEAST ONE
 NEIGHBORING CELL REQUIRED FOR INTERPOLATION IS DRY OR INACTIVE (OBS2BAS7SE)

 INTERPOLATION FOR HEAD OBS# 8348, ID 3055-32-94   CHANGED BECAUSE AT LEAST ONE
 NEIGHBORING CELL REQUIRED FOR INTERPOLATION IS DRY OR INACTIVE (OBS2BAS7SE)

 INTERPOLATION FOR HEAD OBS# 8354, ID 2869-32-96   CHANGED BECAUSE AT LEAST ONE
 NEIGHBORING CELL REQUIRED FOR INTERPOLATION IS DRY OR INACTIVE (OBS2BAS7SE)

 SOLVING FOR HEAD 
                                                   Max.-Head-Change                        Max.-Flux-Residual
  Residual-Control   Outer-Iter.   Inner-Iter.     Column Row Layer    Max.-Head-Change    Column Row Layer    Max.-Flux-Residual            L2-New               L2-Old           Solver-Max-Delh
          0                 1          11            53  106     3       0.2413328888E+01      81   45    1       0.5782295037E+05      0.2981495619E+06      0.4102473818E+00      0.2413328888E+01
          0                 2          10            53  106     3      -0.2196321410E+00      58   82    1      -0.7862842795E+04      0.3196908395E+05      0.2981495619E+06     -0.2196321410E+00
          0                 3           5            84   65     2       0.2342656096E-01      84   65    2       0.8716037632E+03      0.9208189925E+03      0.3196908395E+05      0.2342656096E-01
          0                 4           2            84   65     2       0.2108609379E-02      84   65    2       0.7844317028E+02      0.7844594705E+02      0.9208189925E+03      0.2108609379E-02

    ------------------------------------------------
       NWT REQUIRED            4 OUTER ITERATIONS 
       AND A TOTAL OF         28 INNER ITERATIONS.
    ------------------------------------------------

 NO OUTPUT CONTROL FOR STRESS PERIOD   32   TIME STEP    4

 SOLVING FOR HEAD 
                                                   Max.-Head-Change                        Max.-Flux-Residual
  Residual-Control   Outer-Iter.   Inner-Iter.     Column Row Layer    Max.-Head-Change    Column Row Layer    Max.-Flux-Residual            L2-New               L2-Old           Solver-Max-Delh
          0                 1          11            55   97     3       0.2351383337E+01      81   45    1       0.5570174673E+05      0.2847788259E+06      0.7844594705E+02      0.2351383337E+01
          0                 2          10            84   65     2       0.3758141893E+00      81   45    1      -0.5577127188E+04      0.2867900373E+05      0.2847788259E+06      0.3758141893E+00
          0                 3           5            84   65     2      -0.3416240379E-01      84   65    2      -0.1399453966E+03      0.1479770294E+03      0.2867900373E+05     -0.3416240379E-01
          0                 4           2            25   77     2       0.3715084594E-03      53  108    3       0.1884071734E+01      0.1900442340E+01      0.1479770294E+03      0.3715084594E-03

    ------------------------------------------------
       NWT REQUIRED            4 OUTER ITERATIONS 
       AND A TOTAL OF         28 INNER ITERATIONS.
    ------------------------------------------------

 NO OUTPUT CONTROL FOR STRESS PERIOD   32   TIME STEP    5

 SOLVING FOR HEAD 
                                                   Max.-Head-Change                        Max.-Flux-Residual
  Residual-Control   Outer-Iter.   Inner-Iter.     Column Row Layer    Max.-Head-Change    Column Row Layer    Max.-Flux-Residual            L2-New               L2-Old           Solver-Max-Delh
          0                 1          11            55   97     3       0.2307536194E+01      81   45    1       0.5362865255E+05      0.2745427634E+06      0.1900442340E+01      0.2307536194E+01
          0                 2          10            55   97     3      -0.2077631897E+00      81   45    1      -0.5369225438E+04      0.2772767584E+05      0.2745427634E+06     -0.2077631897E+00
          0                 3           5            91   77     2      -0.1833426948E-02      55   97    2      -0.5011589276E+01      0.1458558394E+02      0.2772767584E+05     -0.1833426948E-02

    ------------------------------------------------
       NWT REQUIRED            3 OUTER ITERATIONS 
       AND A TOTAL OF         26 INNER ITERATIONS.
    ------------------------------------------------

 NO OUTPUT CONTROL FOR STRESS PERIOD   32   TIME STEP    6

 SOLVING FOR HEAD 
                                                   Max.-Head-Change                        Max.-Flux-Residual
  Residual-Control   Outer-Iter.   Inner-Iter.     Column Row Layer    Max.-Head-Change    Column Row Layer    Max.-Flux-Residual            L2-New               L2-Old           Solver-Max-Delh
          0                 1          11            55   97     3       0.2263503492E+01      81   46    1       0.5176944871E+05      0.2661710294E+06      0.1458558394E+02      0.2263503492E+01
          0                 2          10            55   97     3      -0.2037888111E+00      81   46    1      -0.5182042446E+04      0.2664827082E+05      0.2661710294E+06     -0.2037888111E+00
          0                 3           5            91   77     2      -0.1776872710E-02      55   97    2      -0.4918815104E+01      0.1405141280E+02      0.2664827082E+05     -0.1776872710E-02

    ------------------------------------------------
       NWT REQUIRED            3 OUTER ITERATIONS 
       AND A TOTAL OF         26 INNER ITERATIONS.
    ------------------------------------------------

 NO OUTPUT CONTROL FOR STRESS PERIOD   32   TIME STEP    7

 SOLVING FOR HEAD 
                                                   Max.-Head-Change                        Max.-Flux-Residual
  Residual-Control   Outer-Iter.   Inner-Iter.     Column Row Layer    Max.-Head-Change    Column Row Layer    Max.-Flux-Residual            L2-New               L2-Old           Solver-Max-Delh
          0                 1          11            55   97     3       0.2219374216E+01      81   46    1       0.5018791620E+05      0.2590916019E+06      0.1405141280E+02      0.2219374216E+01
          0                 2          10            55   97     3      -0.1998057238E+00      81   46    1      -0.5023580542E+04      0.2592238345E+05      0.2590916019E+06     -0.1998057238E+00
          0                 3           5            91   77     2      -0.1720183493E-02      55   97    2      -0.4825662130E+01      0.1370083720E+02      0.2592238345E+05     -0.1720183493E-02

    ------------------------------------------------
       NWT REQUIRED            3 OUTER ITERATIONS 
       AND A TOTAL OF         26 INNER ITERATIONS.
    ------------------------------------------------

 NO OUTPUT CONTROL FOR STRESS PERIOD   32   TIME STEP    8

 SOLVING FOR HEAD 
                                                   Max.-Head-Change                        Max.-Flux-Residual
  Residual-Control   Outer-Iter.   Inner-Iter.     Column Row Layer    Max.-Head-Change    Column Row Layer    Max.-Flux-Residual            L2-New               L2-Old           Solver-Max-Delh
          0                 1          11            55   97     3       0.2175234697E+01      81   46    1       0.4864935201E+05      0.2529418512E+06      0.1370083720E+02      0.2175234697E+01
          0                 2          10            55   97     3      -0.1958217538E+00      81   46    1      -0.4869431464E+04      0.2530646424E+05      0.2529418512E+06     -0.1958217538E+00
          0                 3           5            91   77     2      -0.1664131269E-02      55   97    2      -0.4732306033E+01      0.1349609836E+02      0.2530646424E+05     -0.1664131269E-02

    ------------------------------------------------
       NWT REQUIRED            3 OUTER ITERATIONS 
       AND A TOTAL OF         26 INNER ITERATIONS.
    ------------------------------------------------

 NO OUTPUT CONTROL FOR STRESS PERIOD   32   TIME STEP    9

 SOLVING FOR HEAD 
                                                   Max.-Head-Change                        Max.-Flux-Residual
  Residual-Control   Outer-Iter.   Inner-Iter.     Column Row Layer    Max.-Head-Change    Column Row Layer    Max.-Flux-Residual            L2-New               L2-Old           Solver-Max-Delh
          0                 1          11            55   97     3       0.2131169971E+01      81   46    1       0.4715347766E+05      0.2475170132E+06      0.1349609836E+02      0.2131169971E+01
          0                 2          10            55   97     3      -0.1918446104E+00      81   46    1      -0.4719566859E+04      0.2476648465E+05      0.2475170132E+06     -0.1918446104E+00
          0                 3           5            91   77     2      -0.1609287540E-02      55   97    2      -0.4638934670E+01      0.1313379071E+02      0.2476648465E+05     -0.1609287540E-02

    ------------------------------------------------
       NWT REQUIRED            3 OUTER ITERATIONS 
       AND A TOTAL OF         26 INNER ITERATIONS.
    ------------------------------------------------

 NO OUTPUT CONTROL FOR STRESS PERIOD   32   TIME STEP   10

 SOLVING FOR HEAD 
                                                   Max.-Head-Change                        Max.-Flux-Residual
  Residual-Control   Outer-Iter.   Inner-Iter.     Column Row Layer    Max.-Head-Change    Column Row Layer    Max.-Flux-Residual            L2-New               L2-Old           Solver-Max-Delh
          0                 1          11            55   97     3       0.2087261351E+01      81   46    1       0.4570016066E+05      0.2426735329E+06      0.1313379071E+02      0.2087261351E+01
          0                 2          10            57   81     2       0.4166953517E+00      81   46    1      -0.4573972969E+04      0.2477319997E+05      0.2426735329E+06      0.4166953517E+00
          0                 3           7            57   81     2      -0.3786120148E-01      21   48    3       0.5158163753E+03      0.6368215939E+03      0.2477319997E+05     -0.3786120148E-01
          0                 4           6            21   48     3       0.6720262740E-03      21   48    3       0.4642179631E+02      0.4642275324E+02      0.6368215939E+03      0.6720262740E-03

    ------------------------------------------------
       NWT REQUIRED            4 OUTER ITERATIONS 
       AND A TOTAL OF         34 INNER ITERATIONS.
    ------------------------------------------------

 NO OUTPUT CONTROL FOR STRESS PERIOD   32   TIME STEP   11

 SOLVING FOR HEAD 
                                                   Max.-Head-Change                        Max.-Flux-Residual
  Residual-Control   Outer-Iter.   Inner-Iter.     Column Row Layer    Max.-Head-Change    Column Row Layer    Max.-Flux-Residual            L2-New               L2-Old           Solver-Max-Delh
          0                 1          11            55   97     3       0.2043586111E+01      81   46    1       0.4428905355E+05      0.2382929767E+06      0.4642275324E+02      0.2043586111E+01
          0                 2          10            55   97     3      -0.1839399353E+00      81   46    1      -0.4432614524E+04      0.2424526929E+05      0.2382929767E+06     -0.1839399353E+00
          0                 3           6            21   48     3      -0.7005431742E-02      21   48    3      -0.3361534240E+03      0.3518683066E+03      0.2424526929E+05     -0.7005431742E-02

    ------------------------------------------------
       NWT REQUIRED            3 OUTER ITERATIONS 
       AND A TOTAL OF         27 INNER ITERATIONS.
    ------------------------------------------------

 OUTPUT CONTROL FOR STRESS PERIOD   32   TIME STEP   12
    SAVE BUDGET
 UBDSV1 SAVING "         STORAGE" ON UNIT  39 AT TIME STEP 12, STRESS PERIOD  32
 UBDSV2 SAVING "   CONSTANT HEAD" ON UNIT  39 AT TIME STEP 12, STRESS PERIOD  32
 UBDSV1 SAVING "FLOW RIGHT FACE " ON UNIT  39 AT TIME STEP 12, STRESS PERIOD  32
 UBDSV1 SAVING "FLOW FRONT FACE " ON UNIT  39 AT TIME STEP 12, STRESS PERIOD  32
 UBDSV1 SAVING "FLOW LOWER FACE " ON UNIT  39 AT TIME STEP 12, STRESS PERIOD  32
 UBDSV3 SAVING "              ET" ON UNIT  39 AT TIME STEP 12, STRESS PERIOD  32
 UBDSV3 SAVING "        RECHARGE" ON UNIT  39 AT TIME STEP 12, STRESS PERIOD  32
1
  VOLUMETRIC BUDGET FOR ENTIRE MODEL AT END OF TIME STEP   12, STRESS PERIOD  32
  ------------------------------------------------------------------------------

     CUMULATIVE VOLUMES      L**3       RATES FOR THIS TIME STEP      L**3/T
     ------------------                 ------------------------

           IN:                                      IN:
           ---                                      ---
             STORAGE = 26991763456.0000               STORAGE =     1316797.0000
       CONSTANT HEAD = 11007697920.0000         CONSTANT HEAD =     1036416.8750
               WELLS =   324179520.0000                 WELLS =           0.0000
                  ET =           0.0000                    ET =           0.0000
            RECHARGE =195453550592.0000              RECHARGE =    23609482.0000

            TOTAL IN =233777184768.0000              TOTAL IN =    25962696.0000

          OUT:                                     OUT:
          ----                                     ----
             STORAGE = 52980793344.0000               STORAGE =     7950416.0000
       CONSTANT HEAD = 70631071744.0000         CONSTANT HEAD =     7649910.5000
               WELLS =   502144192.0000                 WELLS =      109795.0000
                  ET =109663641600.0000                    ET =    10252600.0000
            RECHARGE =           0.0000              RECHARGE =           0.0000

           TOTAL OUT =233777659904.0000             TOTAL OUT =    25962720.0000

            IN - OUT =     -475136.0000              IN - OUT =         -24.0000

 PERCENT DISCREPANCY =          -0.00     PERCENT DISCREPANCY =          -0.00






         TIME SUMMARY AT END OF TIME STEP   12 IN STRESS PERIOD   32
                    SECONDS     MINUTES      HOURS       DAYS        YEARS
                    -----------------------------------------------------------
   TIME STEP LENGTH 2.62800E+06  43800.      730.00      30.417     8.32763E-02
 STRESS PERIOD TIME 3.15360E+07 5.25600E+05  8760.0      365.00     0.99932    
         TOTAL TIME 1.00984E+09 1.68307E+07 2.80512E+05  11688.      32.000    
1
1
                            STRESS PERIOD NO.   33, LENGTH =   366.0000    
                            -----------------------------------------------

                              NUMBER OF TIME STEPS =    12

                               MULTIPLIER FOR DELT =     1.000

                            INITIAL TIME STEP SIZE =   30.50000    

 WELL NO.  LAYER   ROW   COL   STRESS RATE         
 --------------------------------------------------
      1      2     34     44     -0.2579E+05

      1 WELL 

 REUSING SURF FROM LAST STRESS PERIOD

 REUSING EVTR FROM LAST STRESS PERIOD

 REUSING EXDP FROM LAST STRESS PERIOD



                           RECHARGE
 READING ON UNIT   16 WITH FORMAT: (15F5.0)            


     63 TIME-VARIANT SPECIFIED-HEAD CELLS

 SOLVING FOR HEAD 
                                                   Max.-Head-Change                        Max.-Flux-Residual
  Residual-Control   Outer-Iter.   Inner-Iter.     Column Row Layer    Max.-Head-Change    Column Row Layer    Max.-Flux-Residual            L2-New               L2-Old           Solver-Max-Delh
          0                 1          11            54  107     2       0.3736666797E+02      46   33    1       0.1007371433E+06      0.4593977894E+06      0.3518683066E+03      0.3736666797E+02
          0                 2          10            54  108     2      -0.1440210782E+02      54  108    2      -0.5001636195E+06      0.7366528226E+06      0.4593977894E+06     -0.1440210782E+02
          0                 3           6            54  108     2      -0.2527461483E+00      54  108    2      -0.8516390993E+04      0.1063217688E+05      0.7366528226E+06     -0.2527461483E+00
          0                 4           5            55  106     2       0.1772122194E-01      55  108    2       0.3464148348E+03      0.5168213507E+03      0.1063217688E+05      0.1772122194E-01
          0                 5           4            55  106     2       0.1683619923E-02      55  108    2       0.3113316058E+02      0.4658039290E+02      0.5168213507E+03      0.1683619923E-02

    ------------------------------------------------
       NWT REQUIRED            5 OUTER ITERATIONS 
       AND A TOTAL OF         36 INNER ITERATIONS.
    ------------------------------------------------

 NO OUTPUT CONTROL FOR STRESS PERIOD   33   TIME STEP    1

 SOLVING FOR HEAD 
                                                   Max.-Head-Change                        Max.-Flux-Residual
  Residual-Control   Outer-Iter.   Inner-Iter.     Column Row Layer    Max.-Head-Change    Column Row Layer    Max.-Flux-Residual            L2-New               L2-Old           Solver-Max-Delh
          0                 1          11            53  107     3       0.5143593230E+01      53  106    3       0.8133499734E+05      0.3545925496E+06      0.4658039290E+02      0.5143593230E+01
          0                 2          10            53  106     3      -0.4698385143E+00      53  106    3      -0.8187797779E+04      0.3548634057E+05      0.3545925496E+06     -0.4698385143E+00
          0                 3           5            91   77     2       0.2851284606E-02      18   42    2      -0.2888088817E+02      0.4852481344E+02      0.3548634057E+05      0.2851284606E-02

    ------------------------------------------------
       NWT REQUIRED            3 OUTER ITERATIONS 
       AND A TOTAL OF         26 INNER ITERATIONS.
    ------------------------------------------------

 NO OUTPUT CONTROL FOR STRESS PERIOD   33   TIME STEP    2

 SOLVING FOR HEAD 
                                                   Max.-Head-Change                        Max.-Flux-Residual
  Residual-Control   Outer-Iter.   Inner-Iter.     Column Row Layer    Max.-Head-Change    Column Row Layer    Max.-Flux-Residual            L2-New               L2-Old           Solver-Max-Delh
          0                 1          11            53  107     3       0.4773003095E+01      53  107    3       0.7538903341E+05      0.3195829934E+06      0.4852481344E+02      0.4773003095E+01
          0                 2          10            53  107     3      -0.4359402372E+00      53  107    3      -0.7584749918E+04      0.3199586349E+05      0.3195829934E+06     -0.4359402372E+00
          0                 3           5            91   77     2       0.2755803752E-02      16   40    3       0.7238812387E+01      0.1955845406E+02      0.3199586349E+05      0.2755803752E-02

    ------------------------------------------------
       NWT REQUIRED            3 OUTER ITERATIONS 
       AND A TOTAL OF         26 INNER ITERATIONS.
    ------------------------------------------------

 NO OUTPUT CONTROL FOR STRESS PERIOD   33   TIME STEP    3

 SOLVING FOR HEAD 
                                                   Max.-Head-Change                        Max.-Flux-Residual
  Residual-Control   Outer-Iter.   Inner-Iter.     Column Row Layer    Max.-Head-Change    Column Row Layer    Max.-Flux-Residual            L2-New               L2-Old           Solver-Max-Delh
          0                 1          11            53  107     3       0.4417642071E+01      53  107    3       0.6996192120E+05      0.3008932168E+06      0.1955845406E+02      0.4417642071E+01
          0                 2          10            53  107     3      -0.4426262340E+00      53  107    3      -0.8005480326E+04      0.3107546674E+05      0.3008932168E+06     -0.4426262340E+00
          0                 3           5            65    4     2      -0.9002463540E-01      65    4    2      -0.2545488938E+04      0.2545560458E+04      0.3107546674E+05     -0.9002463540E-01
          0                 4           2            65    4     2      -0.8110061655E-02      65    4    2      -0.2292584158E+03      0.2292609969E+03      0.2545560458E+04     -0.8110061655E-02

    ------------------------------------------------
       NWT REQUIRED            4 OUTER ITERATIONS 
       AND A TOTAL OF         28 INNER ITERATIONS.
    ------------------------------------------------

 NO OUTPUT CONTROL FOR STRESS PERIOD   33   TIME STEP    4

 INTERPOLATION FOR HEAD OBS# 7769, ID 164-33-152   CHANGED BECAUSE AT LEAST ONE
 NEIGHBORING CELL REQUIRED FOR INTERPOLATION IS DRY OR INACTIVE (OBS2BAS7SE)

 SOLVING FOR HEAD 
                                                   Max.-Head-Change                        Max.-Flux-Residual
  Residual-Control   Outer-Iter.   Inner-Iter.     Column Row Layer    Max.-Head-Change    Column Row Layer    Max.-Flux-Residual            L2-New               L2-Old           Solver-Max-Delh
          0                 1          11            53  106     3       0.4077703952E+01      53  106    3       0.6456211037E+05      0.2876959365E+06      0.2292609969E+03      0.4077703952E+01
          0                 2          10            92   77     2      -0.6320109631E+02      92   77    2      -0.2009317209E+05      0.3566588859E+05      0.2876959365E+06     -0.6320109631E+02
          0                 3           6            92   77     2       0.6534858389E+01      92   77    2       0.4944758471E+04      0.7093306119E+04      0.3566588859E+05      0.6534858389E+01
          0                 4           2            92   77     2       0.2484973024E+00      92   76    2      -0.1912340674E+03      0.2683415706E+03      0.7093306119E+04      0.2484973024E+00
          0                 5           2            92   77     2       0.9260837489E-02      92   77    3       0.9347251802E+01      0.1428080565E+02      0.2683415706E+03      0.9260837489E-02

    ------------------------------------------------
       NWT REQUIRED            5 OUTER ITERATIONS 
       AND A TOTAL OF         31 INNER ITERATIONS.
    ------------------------------------------------

 NO OUTPUT CONTROL FOR STRESS PERIOD   33   TIME STEP    5

 SOLVING FOR HEAD 
                                                   Max.-Head-Change                        Max.-Flux-Residual
  Residual-Control   Outer-Iter.   Inner-Iter.     Column Row Layer    Max.-Head-Change    Column Row Layer    Max.-Flux-Residual            L2-New               L2-Old           Solver-Max-Delh
          0                 1          11            92   77     2      -0.1035591085E+02      55   97    3       0.5997160335E+05      0.2762619956E+06      0.1428080565E+02     -0.1035591085E+02
          0                 2          10            92   77     2       0.4851420885E+00      55   97    3      -0.6017465375E+04      0.2764744376E+05      0.2762619956E+06      0.4851420885E+00
          0                 3           5            92   77     2       0.1792886295E-01      92   77    2       0.1316137663E+02      0.2034300371E+02      0.2764744376E+05      0.1792886295E-01
          0                 4           2            92   77     2       0.6719678374E-03      92   77    2       0.4933402465E+00      0.5111119750E+00      0.2034300371E+02      0.6719678374E-03

    ------------------------------------------------
       NWT REQUIRED            4 OUTER ITERATIONS 
       AND A TOTAL OF         28 INNER ITERATIONS.
    ------------------------------------------------

 NO OUTPUT CONTROL FOR STRESS PERIOD   33   TIME STEP    6

 SOLVING FOR HEAD 
                                                   Max.-Head-Change                        Max.-Flux-Residual
  Residual-Control   Outer-Iter.   Inner-Iter.     Column Row Layer    Max.-Head-Change    Column Row Layer    Max.-Flux-Residual            L2-New               L2-Old           Solver-Max-Delh
          0                 1          11            53  106     3       0.3505554782E+01      55   97    3       0.5855037570E+05      0.2679864078E+06      0.5111119750E+00      0.3505554782E+01
          0                 2          10            58   98     2       0.6290405759E+00      58   98    2       0.5882933413E+04      0.2747409363E+05      0.2679864078E+06      0.6290405759E+00
          0                 3           6            58   98     2      -0.5720341902E-01      58   98    2      -0.5884682809E+03      0.6135857942E+03      0.2747409363E+05     -0.5720341902E-01
          0                 4           2            25   78     2       0.3516601467E-03      67   22    1       0.4316138811E+00      0.4581134507E+00      0.6135857942E+03      0.3516601467E-03

    ------------------------------------------------
       NWT REQUIRED            4 OUTER ITERATIONS 
       AND A TOTAL OF         29 INNER ITERATIONS.
    ------------------------------------------------

 NO OUTPUT CONTROL FOR STRESS PERIOD   33   TIME STEP    7

 SOLVING FOR HEAD 
                                                   Max.-Head-Change                        Max.-Flux-Residual
  Residual-Control   Outer-Iter.   Inner-Iter.     Column Row Layer    Max.-Head-Change    Column Row Layer    Max.-Flux-Residual            L2-New               L2-Old           Solver-Max-Delh
          0                 1          11            53  106     3       0.3253144832E+01      55   97    3       0.5714135523E+05      0.2605430187E+06      0.4581134507E+00      0.3253144832E+01
          0                 2          10            53  106     3      -0.2967176919E+00      13    9    2       0.9557327636E+04      0.2771790800E+05      0.2605430187E+06     -0.2967176919E+00
          0                 3           5            25   77     2       0.1491029240E-02      55   97    2      -0.5862940880E+01      0.1506304116E+02      0.2771790800E+05      0.1491029240E-02

    ------------------------------------------------
       NWT REQUIRED            3 OUTER ITERATIONS 
       AND A TOTAL OF         26 INNER ITERATIONS.
    ------------------------------------------------

 NO OUTPUT CONTROL FOR STRESS PERIOD   33   TIME STEP    8

 SOLVING FOR HEAD 
                                                   Max.-Head-Change                        Max.-Flux-Residual
  Residual-Control   Outer-Iter.   Inner-Iter.     Column Row Layer    Max.-Head-Change    Column Row Layer    Max.-Flux-Residual            L2-New               L2-Old           Solver-Max-Delh
          0                 1          11            53  106     3       0.3022927094E+01      55   97    3       0.5574745946E+05      0.2539696821E+06      0.1506304116E+02      0.3022927094E+01
          0                 2          10            53  106     3      -0.2756452999E+00      55   97    3      -0.5591823730E+04      0.2548353748E+05      0.2539696821E+06     -0.2756452999E+00
          0                 3           5            57   82     2      -0.2357716267E-01      57   82    2      -0.1938613866E+03      0.2050637530E+03      0.2548353748E+05     -0.2357716267E-01
          0                 4           2            25   78     2       0.3533935215E-03      92   77    2       0.3633828182E-01      0.1320273752E+00      0.2050637530E+03      0.3533935215E-03

    ------------------------------------------------
       NWT REQUIRED            4 OUTER ITERATIONS 
       AND A TOTAL OF         28 INNER ITERATIONS.
    ------------------------------------------------

 NO OUTPUT CONTROL FOR STRESS PERIOD   33   TIME STEP    9

 SOLVING FOR HEAD 
                                                   Max.-Head-Change                        Max.-Flux-Residual
  Residual-Control   Outer-Iter.   Inner-Iter.     Column Row Layer    Max.-Head-Change    Column Row Layer    Max.-Flux-Residual            L2-New               L2-Old           Solver-Max-Delh
          0                 1          11            53  106     3       0.2813550626E+01      55   97    3       0.5437119830E+05      0.2482557840E+06      0.1320273752E+00      0.2813550626E+01
          0                 2          10            51  103     3       0.5154739759E+00      51  103    3       0.1254949068E+05      0.2800893941E+05      0.2482557840E+06      0.5154739759E+00
          0                 3           6            58   99     2      -0.3093893680E-01      58   99    2      -0.3275107362E+03      0.3381896674E+03      0.2800893941E+05     -0.3093893680E-01
          0                 4           2            25   78     2       0.3489083992E-03      51  103    3      -0.1037947768E+00      0.1658005462E+00      0.3381896674E+03      0.3489083992E-03

    ------------------------------------------------
       NWT REQUIRED            4 OUTER ITERATIONS 
       AND A TOTAL OF         29 INNER ITERATIONS.
    ------------------------------------------------

 NO OUTPUT CONTROL FOR STRESS PERIOD   33   TIME STEP   10

 INTERPOLATION FOR HEAD OBS#  251, ID 3260-33-313  CHANGED BECAUSE AT LEAST ONE
 NEIGHBORING CELL REQUIRED FOR INTERPOLATION IS DRY OR INACTIVE (OBS2BAS7SE)

 SOLVING FOR HEAD 
                                                   Max.-Head-Change                        Max.-Flux-Residual
  Residual-Control   Outer-Iter.   Inner-Iter.     Column Row Layer    Max.-Head-Change    Column Row Layer    Max.-Flux-Residual            L2-New               L2-Old           Solver-Max-Delh
          0                 1          11            53  106     3       0.2623481468E+01      55   97    3       0.5301496574E+05      0.2432719093E+06      0.1658005462E+00      0.2623481468E+01
          0                 2          10            53  106     3      -0.2391045217E+00      55   97    3      -0.5316590179E+04      0.2439384133E+05      0.2432719093E+06     -0.2391045217E+00
          0                 3           5            25   77     2       0.1474378102E-02      37   64    3      -0.3648533126E+02      0.5304426768E+02      0.2439384133E+05      0.1474378102E-02

    ------------------------------------------------
       NWT REQUIRED            3 OUTER ITERATIONS 
       AND A TOTAL OF         26 INNER ITERATIONS.
    ------------------------------------------------

 NO OUTPUT CONTROL FOR STRESS PERIOD   33   TIME STEP   11

 SOLVING FOR HEAD 
                                                   Max.-Head-Change                        Max.-Flux-Residual
  Residual-Control   Outer-Iter.   Inner-Iter.     Column Row Layer    Max.-Head-Change    Column Row Layer    Max.-Flux-Residual            L2-New               L2-Old           Solver-Max-Delh
          0                 1          11            53  106     3       0.2451112730E+01      55   97    3       0.5168080049E+05      0.2386243933E+06      0.5304426768E+02      0.2451112730E+01
          0                 2          10            53  106     3      -0.2233459794E+00      55   97    3      -0.5182240820E+04      0.2389548962E+05      0.2386243933E+06     -0.2233459794E+00
          0                 3           6            35   15     3      -0.1014580425E-01      35   15    3      -0.1019499388E+03      0.1056133312E+03      0.2389548962E+05     -0.1014580425E-01
          0                 4           2            25   78     2       0.3515663378E-03      55   97    2      -0.3193311393E-01      0.1268096712E+00      0.1056133312E+03      0.3515663378E-03

    ------------------------------------------------
       NWT REQUIRED            4 OUTER ITERATIONS 
       AND A TOTAL OF         29 INNER ITERATIONS.
    ------------------------------------------------

 OUTPUT CONTROL FOR STRESS PERIOD   33   TIME STEP   12
    SAVE BUDGET
 UBDSV1 SAVING "         STORAGE" ON UNIT  39 AT TIME STEP 12, STRESS PERIOD  33
 UBDSV2 SAVING "   CONSTANT HEAD" ON UNIT  39 AT TIME STEP 12, STRESS PERIOD  33
 UBDSV1 SAVING "FLOW RIGHT FACE " ON UNIT  39 AT TIME STEP 12, STRESS PERIOD  33
 UBDSV1 SAVING "FLOW FRONT FACE " ON UNIT  39 AT TIME STEP 12, STRESS PERIOD  33
 UBDSV1 SAVING "FLOW LOWER FACE " ON UNIT  39 AT TIME STEP 12, STRESS PERIOD  33
 UBDSV3 SAVING "              ET" ON UNIT  39 AT TIME STEP 12, STRESS PERIOD  33
 UBDSV3 SAVING "        RECHARGE" ON UNIT  39 AT TIME STEP 12, STRESS PERIOD  33
1
  VOLUMETRIC BUDGET FOR ENTIRE MODEL AT END OF TIME STEP   12, STRESS PERIOD  33
  ------------------------------------------------------------------------------

     CUMULATIVE VOLUMES      L**3       RATES FOR THIS TIME STEP      L**3/T
     ------------------                 ------------------------

           IN:                                      IN:
           ---                                      ---
             STORAGE = 27932983296.0000               STORAGE =     2175394.2500
       CONSTANT HEAD = 11386816512.0000         CONSTANT HEAD =     1022824.3125
               WELLS =   324179520.0000                 WELLS =           0.0000
                  ET =           0.0000                    ET =           0.0000
            RECHARGE =203259871232.0000              RECHARGE =    21328528.0000

            TOTAL IN =242903842816.0000              TOTAL IN =    24526746.0000

          OUT:                                     OUT:
          ----                                     ----
             STORAGE = 55622627328.0000               STORAGE =     6873127.0000
       CONSTANT HEAD = 73448775680.0000         CONSTANT HEAD =     7746844.5000
               WELLS =   511582144.0000                 WELLS =       25787.0000
                  ET =113321279488.0000                    ET =     9881013.0000
            RECHARGE =           0.0000              RECHARGE =           0.0000

           TOTAL OUT =242904268800.0000             TOTAL OUT =    24526772.0000

            IN - OUT =     -425984.0000              IN - OUT =         -26.0000

 PERCENT DISCREPANCY =          -0.00     PERCENT DISCREPANCY =          -0.00






         TIME SUMMARY AT END OF TIME STEP   12 IN STRESS PERIOD   33
                    SECONDS     MINUTES      HOURS       DAYS        YEARS
                    -----------------------------------------------------------
   TIME STEP LENGTH 2.63520E+06  43920.      732.00      30.500     8.35044E-02
 STRESS PERIOD TIME 3.16224E+07 5.27040E+05  8784.0      366.00      1.0021    
         TOTAL TIME 1.04147E+09 1.73578E+07 2.89296E+05  12054.      33.002    
1
1
                            STRESS PERIOD NO.   34, LENGTH =   365.0000    
                            -----------------------------------------------

                              NUMBER OF TIME STEPS =    12

                               MULTIPLIER FOR DELT =     1.000

                            INITIAL TIME STEP SIZE =   30.41667    

 WELL NO.  LAYER   ROW   COL   STRESS RATE         
 --------------------------------------------------
      1      2     34     46      -7246.    

      1 WELL 

 REUSING SURF FROM LAST STRESS PERIOD

 REUSING EVTR FROM LAST STRESS PERIOD

 REUSING EXDP FROM LAST STRESS PERIOD



                           RECHARGE
 READING ON UNIT   16 WITH FORMAT: (15F5.0)            


     63 TIME-VARIANT SPECIFIED-HEAD CELLS

 SOLVING FOR HEAD 
                                                   Max.-Head-Change                        Max.-Flux-Residual
  Residual-Control   Outer-Iter.   Inner-Iter.     Column Row Layer    Max.-Head-Change    Column Row Layer    Max.-Flux-Residual            L2-New               L2-Old           Solver-Max-Delh
          0                 1          11            13   85     1      -0.1671658723E+02      53  106    3       0.8593903042E+05      0.5438124957E+06      0.1268096712E+00     -0.1671658723E+02
          0                 2          10            91   67     1      -0.2317630770E+01      91   67    1      -0.1033944254E+06      0.1170283195E+06      0.5438124957E+06     -0.2317630770E+01
          0                 3           5            72   15     1       0.1224142702E+00      72   15    1       0.7303991820E+03      0.9813568751E+03      0.1170283195E+06      0.1224142702E+00
          0                 4           3            13   85     1       0.1422421586E-02      17   76    3      -0.8665254546E+01      0.1332294997E+02      0.9813568751E+03      0.1422421586E-02

    ------------------------------------------------
       NWT REQUIRED            4 OUTER ITERATIONS 
       AND A TOTAL OF         29 INNER ITERATIONS.
    ------------------------------------------------

 NO OUTPUT CONTROL FOR STRESS PERIOD   34   TIME STEP    1

 SOLVING FOR HEAD 
                                                   Max.-Head-Change                        Max.-Flux-Residual
  Residual-Control   Outer-Iter.   Inner-Iter.     Column Row Layer    Max.-Head-Change    Column Row Layer    Max.-Flux-Residual            L2-New               L2-Old           Solver-Max-Delh
          0                 1          11            53  106     3       0.4724779524E+01      54  106    2       0.8003047458E+05      0.4182949038E+06      0.1332294997E+02      0.4724779524E+01
          0                 2          10            53  106     3      -0.4324177809E+00      54  106    2      -0.8073127166E+04      0.4242814748E+05      0.4182949038E+06     -0.4324177809E+00
          0                 3           5            16   76     3      -0.1973776604E-02      16   76    3      -0.4737287487E+02      0.5924186893E+02      0.4242814748E+05     -0.1973776604E-02

    ------------------------------------------------
       NWT REQUIRED            3 OUTER ITERATIONS 
       AND A TOTAL OF         26 INNER ITERATIONS.
    ------------------------------------------------

 NO OUTPUT CONTROL FOR STRESS PERIOD   34   TIME STEP    2

 SOLVING FOR HEAD 
                                                   Max.-Head-Change                        Max.-Flux-Residual
  Residual-Control   Outer-Iter.   Inner-Iter.     Column Row Layer    Max.-Head-Change    Column Row Layer    Max.-Flux-Residual            L2-New               L2-Old           Solver-Max-Delh
          0                 1          11            53  106     3       0.4268783791E+01      54  106    2       0.7638323496E+05      0.3710044412E+06      0.5924186893E+02      0.4268783791E+01
          0                 2          10            53  106     3      -0.3902466242E+00      54  106    2      -0.7700622007E+04      0.3732799009E+05      0.3710044412E+06     -0.3902466242E+00
          0                 3           6            21   50     3       0.6378722982E-02      21   50    3       0.4046625141E+03      0.4049773477E+03      0.3732799009E+05      0.6378722982E-02

    ------------------------------------------------
       NWT REQUIRED            3 OUTER ITERATIONS 
       AND A TOTAL OF         27 INNER ITERATIONS.
    ------------------------------------------------

 NO OUTPUT CONTROL FOR STRESS PERIOD   34   TIME STEP    3

 SOLVING FOR HEAD 
                                                   Max.-Head-Change                        Max.-Flux-Residual
  Residual-Control   Outer-Iter.   Inner-Iter.     Column Row Layer    Max.-Head-Change    Column Row Layer    Max.-Flux-Residual            L2-New               L2-Old           Solver-Max-Delh
          0                 1          11            53  106     3       0.3882514729E+01      54  106    2       0.7320220794E+05      0.3430829842E+06      0.4049773477E+03      0.3882514729E+01
          0                 2          10            90   66     2       0.7295894242E+00      90   66    2       0.7913440094E+04      0.3535385712E+05      0.3430829842E+06      0.7295894242E+00
          0                 3           6            90   66     2      -0.6632761385E-01      90   66    2      -0.7854676154E+03      0.8476613762E+03      0.3535385712E+05     -0.6632761385E-01
          0                 4           3            25   78     2       0.3532448608E-03      21   51    3       0.1775621096E+01      0.1896562986E+01      0.8476613762E+03      0.3532448608E-03

    ------------------------------------------------
       NWT REQUIRED            4 OUTER ITERATIONS 
       AND A TOTAL OF         30 INNER ITERATIONS.
    ------------------------------------------------

 NO OUTPUT CONTROL FOR STRESS PERIOD   34   TIME STEP    4

 INTERPOLATION FOR HEAD OBS# 5328, ID 1735-34-152  CHANGED BECAUSE AT LEAST ONE
 NEIGHBORING CELL REQUIRED FOR INTERPOLATION IS DRY OR INACTIVE (OBS2BAS7SE)

 SOLVING FOR HEAD 
                                                   Max.-Head-Change                        Max.-Flux-Residual
  Residual-Control   Outer-Iter.   Inner-Iter.     Column Row Layer    Max.-Head-Change    Column Row Layer    Max.-Flux-Residual            L2-New               L2-Old           Solver-Max-Delh
          0                 1          11            53  106     3       0.3552709765E+01      54  106    2       0.7027322458E+05      0.3237861457E+06      0.1896562986E+01      0.3552709765E+01
          0                 2          10            53  106     3      -0.3242655505E+00      54  106    2      -0.7076692212E+04      0.3243716598E+05      0.3237861457E+06     -0.3242655505E+00
          0                 3           5            25   77     2       0.1470436435E-02      55   97    2      -0.4669749558E+01      0.1505039874E+02      0.3243716598E+05      0.1470436435E-02

    ------------------------------------------------
       NWT REQUIRED            3 OUTER ITERATIONS 
       AND A TOTAL OF         26 INNER ITERATIONS.
    ------------------------------------------------

 NO OUTPUT CONTROL FOR STRESS PERIOD   34   TIME STEP    5

 SOLVING FOR HEAD 
                                                   Max.-Head-Change                        Max.-Flux-Residual
  Residual-Control   Outer-Iter.   Inner-Iter.     Column Row Layer    Max.-Head-Change    Column Row Layer    Max.-Flux-Residual            L2-New               L2-Old           Solver-Max-Delh
          0                 1          11            53  106     3       0.3269211752E+01      54  106    2       0.6748697347E+05      0.3091324391E+06      0.1505039874E+02      0.3269211752E+01
          0                 2          10            54  106     3       0.2765890992E+00      54  106    2      -0.6792589245E+04      0.3126676131E+05      0.3091324391E+06      0.2765890992E+00
          0                 3           6            14    1     1      -0.3338833385E-01      14    1    1      -0.1917753548E+04      0.1949213150E+04      0.3126676131E+05     -0.3338833385E-01
          0                 4           4            14    1     1      -0.3007010460E-02      14    1    1      -0.1726733068E+03      0.1727071987E+03      0.1949213150E+04     -0.3007010460E-02

    ------------------------------------------------
       NWT REQUIRED            4 OUTER ITERATIONS 
       AND A TOTAL OF         31 INNER ITERATIONS.
    ------------------------------------------------

 NO OUTPUT CONTROL FOR STRESS PERIOD   34   TIME STEP    6

 INTERPOLATION FOR HEAD OBS# 3606, ID 1370-34-198  CHANGED BECAUSE AT LEAST ONE
 NEIGHBORING CELL REQUIRED FOR INTERPOLATION IS DRY OR INACTIVE (OBS2BAS7SE)

 SOLVING FOR HEAD 
                                                   Max.-Head-Change                        Max.-Flux-Residual
  Residual-Control   Outer-Iter.   Inner-Iter.     Column Row Layer    Max.-Head-Change    Column Row Layer    Max.-Flux-Residual            L2-New               L2-Old           Solver-Max-Delh
          0                 1          11            54  106     3       0.4178101851E+01      54  106    2       0.6587913125E+05      0.2972538586E+06      0.1727071987E+03      0.4178101851E+01
          0                 2          10            54  106     3      -0.3830079192E+00      54  106    2      -0.6638135001E+04      0.2982513391E+05      0.2972538586E+06     -0.3830079192E+00
          0                 3           6            14    1     1       0.8196289727E-02      14    1    1       0.2206590700E+03      0.2273313463E+03      0.2982513391E+05      0.8196289727E-02

    ------------------------------------------------
       NWT REQUIRED            3 OUTER ITERATIONS 
       AND A TOTAL OF         27 INNER ITERATIONS.
    ------------------------------------------------

 NO OUTPUT CONTROL FOR STRESS PERIOD   34   TIME STEP    7

 SOLVING FOR HEAD 
                                                   Max.-Head-Change                        Max.-Flux-Residual
  Residual-Control   Outer-Iter.   Inner-Iter.     Column Row Layer    Max.-Head-Change    Column Row Layer    Max.-Flux-Residual            L2-New               L2-Old           Solver-Max-Delh
          0                 1          11            53  106     3       0.2941011777E+01      54  106    2       0.6841716126E+05      0.2891045533E+06      0.2273313463E+03      0.2941011777E+01
          0                 2          10            53  106     3      -0.2680893009E+00      54  106    2      -0.6885686018E+04      0.2897140365E+05      0.2891045533E+06     -0.2680893009E+00
          0                 3           5            13    1     1       0.6124074780E-02      13    1    1       0.1480514444E+03      0.1506938981E+03      0.2897140365E+05      0.6124074780E-02

    ------------------------------------------------
       NWT REQUIRED            3 OUTER ITERATIONS 
       AND A TOTAL OF         26 INNER ITERATIONS.
    ------------------------------------------------

 NO OUTPUT CONTROL FOR STRESS PERIOD   34   TIME STEP    8

 SOLVING FOR HEAD 
                                                   Max.-Head-Change                        Max.-Flux-Residual
  Residual-Control   Outer-Iter.   Inner-Iter.     Column Row Layer    Max.-Head-Change    Column Row Layer    Max.-Flux-Residual            L2-New               L2-Old           Solver-Max-Delh
          0                 1          11            53  106     3       0.2736041188E+01      54  106    2       0.6535625788E+05      0.2804280171E+06      0.1506938981E+03      0.2736041188E+01
          0                 2          10            53  106     3      -0.2492762609E+00      54  106    2      -0.6573962729E+04      0.2807300884E+05      0.2804280171E+06     -0.2492762609E+00
          0                 3           5            25   77     2       0.1488920138E-02      40   65    3      -0.1282424704E+02      0.2116698961E+02      0.2807300884E+05      0.1488920138E-02

    ------------------------------------------------
       NWT REQUIRED            3 OUTER ITERATIONS 
       AND A TOTAL OF         26 INNER ITERATIONS.
    ------------------------------------------------

 NO OUTPUT CONTROL FOR STRESS PERIOD   34   TIME STEP    9

 SOLVING FOR HEAD 
                                                   Max.-Head-Change                        Max.-Flux-Residual
  Residual-Control   Outer-Iter.   Inner-Iter.     Column Row Layer    Max.-Head-Change    Column Row Layer    Max.-Flux-Residual            L2-New               L2-Old           Solver-Max-Delh
          0                 1          11            53  106     3       0.2556341759E+01      54  106    2       0.6227083007E+05      0.2727753097E+06      0.2116698961E+02      0.2556341759E+01
          0                 2          10            53  106     3      -0.2328719645E+00      54  106    2      -0.6260491725E+04      0.2731376060E+05      0.2727753097E+06     -0.2328719645E+00
          0                 3           5            44   26     2      -0.8412325253E-02      44   26    2      -0.1077327704E+03      0.1166169000E+03      0.2731376060E+05     -0.8412325253E-02

    ------------------------------------------------
       NWT REQUIRED            3 OUTER ITERATIONS 
       AND A TOTAL OF         26 INNER ITERATIONS.
    ------------------------------------------------

 NO OUTPUT CONTROL FOR STRESS PERIOD   34   TIME STEP   10

 SOLVING FOR HEAD 
                                                   Max.-Head-Change                        Max.-Flux-Residual
  Residual-Control   Outer-Iter.   Inner-Iter.     Column Row Layer    Max.-Head-Change    Column Row Layer    Max.-Flux-Residual            L2-New               L2-Old           Solver-Max-Delh
          0                 1          11            53  106     3       0.2398044136E+01      54  106    2       0.5927604184E+05      0.2659173314E+06      0.1166169000E+03      0.2398044136E+01
          0                 2           9            53  106     3      -0.2183958837E+00      54  106    2      -0.5956712698E+04      0.2660902866E+05      0.2659173314E+06     -0.2183958837E+00
          0                 3           5            25   77     2       0.1489058140E-02      55   97    2      -0.3999442559E+01      0.1261762868E+02      0.2660902866E+05      0.1489058140E-02

    ------------------------------------------------
       NWT REQUIRED            3 OUTER ITERATIONS 
       AND A TOTAL OF         25 INNER ITERATIONS.
    ------------------------------------------------

 NO OUTPUT CONTROL FOR STRESS PERIOD   34   TIME STEP   11

 SOLVING FOR HEAD 
                                                   Max.-Head-Change                        Max.-Flux-Residual
  Residual-Control   Outer-Iter.   Inner-Iter.     Column Row Layer    Max.-Head-Change    Column Row Layer    Max.-Flux-Residual            L2-New               L2-Old           Solver-Max-Delh
          0                 1          11            53  106     3       0.2257993626E+01      54  106    2       0.5639245638E+05      0.2597574550E+06      0.1261762868E+02      0.2257993626E+01
          0                 2           9            53  106     3      -0.2055965619E+00      54  106    2      -0.5664616709E+04      0.2602118312E+05      0.2597574550E+06     -0.2055965619E+00
          0                 3           5            25   77     2       0.1488133021E-02      55   97    2      -0.3897997607E+01      0.1250617739E+02      0.2602118312E+05      0.1488133021E-02

    ------------------------------------------------
       NWT REQUIRED            3 OUTER ITERATIONS 
       AND A TOTAL OF         25 INNER ITERATIONS.
    ------------------------------------------------

 OUTPUT CONTROL FOR STRESS PERIOD   34   TIME STEP   12
    SAVE BUDGET
 UBDSV1 SAVING "         STORAGE" ON UNIT  39 AT TIME STEP 12, STRESS PERIOD  34
 UBDSV2 SAVING "   CONSTANT HEAD" ON UNIT  39 AT TIME STEP 12, STRESS PERIOD  34
 UBDSV1 SAVING "FLOW RIGHT FACE " ON UNIT  39 AT TIME STEP 12, STRESS PERIOD  34
 UBDSV1 SAVING "FLOW FRONT FACE " ON UNIT  39 AT TIME STEP 12, STRESS PERIOD  34
 UBDSV1 SAVING "FLOW LOWER FACE " ON UNIT  39 AT TIME STEP 12, STRESS PERIOD  34
 UBDSV3 SAVING "              ET" ON UNIT  39 AT TIME STEP 12, STRESS PERIOD  34
 UBDSV3 SAVING "        RECHARGE" ON UNIT  39 AT TIME STEP 12, STRESS PERIOD  34

 INTERPOLATION FOR HEAD OBS# 1832, ID 1988-35-4    CHANGED BECAUSE AT LEAST ONE
 NEIGHBORING CELL REQUIRED FOR INTERPOLATION IS DRY OR INACTIVE (OBS2BAS7SE)
1
  VOLUMETRIC BUDGET FOR ENTIRE MODEL AT END OF TIME STEP   12, STRESS PERIOD  34
  ------------------------------------------------------------------------------

     CUMULATIVE VOLUMES      L**3       RATES FOR THIS TIME STEP      L**3/T
     ------------------                 ------------------------

           IN:                                      IN:
           ---                                      ---
             STORAGE = 28844120064.0000               STORAGE =     1970920.6250
       CONSTANT HEAD = 11745927168.0000         CONSTANT HEAD =      962399.5000
               WELLS =   324179520.0000                 WELLS =           0.0000
                  ET =           0.0000                    ET =           0.0000
            RECHARGE =211372703744.0000              RECHARGE =    22226804.0000

            TOTAL IN =252286926848.0000              TOTAL IN =    25160124.0000

          OUT:                                     OUT:
          ----                                     ----
             STORAGE = 58422632448.0000               STORAGE =     6939646.5000
       CONSTANT HEAD = 76254224384.0000         CONSTANT HEAD =     7672596.0000
               WELLS =   514226752.0000                 WELLS =        7246.0000
                  ET =117096218624.0000                    ET =    10540661.0000
            RECHARGE =           0.0000              RECHARGE =           0.0000

           TOTAL OUT =252287303680.0000             TOTAL OUT =    25160148.0000

            IN - OUT =     -376832.0000              IN - OUT =         -24.0000

 PERCENT DISCREPANCY =          -0.00     PERCENT DISCREPANCY =          -0.00






         TIME SUMMARY AT END OF TIME STEP   12 IN STRESS PERIOD   34
                    SECONDS     MINUTES      HOURS       DAYS        YEARS
                    -----------------------------------------------------------
   TIME STEP LENGTH 2.62800E+06  43800.      730.00      30.417     8.32763E-02
 STRESS PERIOD TIME 3.15360E+07 5.25600E+05  8760.0      365.00     0.99932    
         TOTAL TIME 1.07300E+09 1.78834E+07 2.98056E+05  12419.      34.001    
1
1
                            STRESS PERIOD NO.   35, LENGTH =   365.0000    
                            -----------------------------------------------

                              NUMBER OF TIME STEPS =    12

                               MULTIPLIER FOR DELT =     1.000

                            INITIAL TIME STEP SIZE =   30.41667    

 WELL NO.  LAYER   ROW   COL   STRESS RATE         
 --------------------------------------------------
      1      2     35     47     -0.1014E+05

      1 WELL 

 REUSING SURF FROM LAST STRESS PERIOD

 REUSING EVTR FROM LAST STRESS PERIOD

 REUSING EXDP FROM LAST STRESS PERIOD



                           RECHARGE
 READING ON UNIT   16 WITH FORMAT: (15F5.0)            


     63 TIME-VARIANT SPECIFIED-HEAD CELLS

 SOLVING FOR HEAD 
                                                   Max.-Head-Change                        Max.-Flux-Residual
  Residual-Control   Outer-Iter.   Inner-Iter.     Column Row Layer    Max.-Head-Change    Column Row Layer    Max.-Flux-Residual            L2-New               L2-Old           Solver-Max-Delh
          0                 1          11            92   67     1      -0.1156801533E+02      89   66    1      -0.7521299355E+05      0.4902398423E+06      0.1250617739E+02     -0.1156801533E+02
          0                 2          10            92   67     1       0.9776937321E+00      89   66    1       0.7445885696E+04      0.4870525266E+05      0.4902398423E+06      0.9776937321E+00
          0                 3           6            13   85     1      -0.1260897650E-01      54  121    1      -0.1680663314E+03      0.2183254218E+03      0.4870525266E+05     -0.1260897650E-01
          0                 4           3            13   85     1      -0.9304901955E-03      54  121    1      -0.1512616986E+02      0.1517260078E+02      0.2183254218E+03     -0.9304901955E-03

    ------------------------------------------------
       NWT REQUIRED            4 OUTER ITERATIONS 
       AND A TOTAL OF         30 INNER ITERATIONS.
    ------------------------------------------------

 NO OUTPUT CONTROL FOR STRESS PERIOD   35   TIME STEP    1

 SOLVING FOR HEAD 
                                                   Max.-Head-Change                        Max.-Flux-Residual
  Residual-Control   Outer-Iter.   Inner-Iter.     Column Row Layer    Max.-Head-Change    Column Row Layer    Max.-Flux-Residual            L2-New               L2-Old           Solver-Max-Delh
          0                 1          11            53  106     3       0.1947612824E+01      89   66    1      -0.6746748578E+05      0.3349874207E+06      0.1517260078E+02      0.1947612824E+01
          0                 2          10            53  106     3      -0.1772560571E+00      89   66    1       0.6686807386E+04      0.3375268131E+05      0.3349874207E+06     -0.1772560571E+00
          0                 3           5            15    1     1       0.6342136584E-02      15    1    1       0.1623093856E+03      0.1894476441E+03      0.3375268131E+05      0.6342136584E-02

    ------------------------------------------------
       NWT REQUIRED            3 OUTER ITERATIONS 
       AND A TOTAL OF         26 INNER ITERATIONS.
    ------------------------------------------------

 NO OUTPUT CONTROL FOR STRESS PERIOD   35   TIME STEP    2

 SOLVING FOR HEAD 
                                                   Max.-Head-Change                        Max.-Flux-Residual
  Residual-Control   Outer-Iter.   Inner-Iter.     Column Row Layer    Max.-Head-Change    Column Row Layer    Max.-Flux-Residual            L2-New               L2-Old           Solver-Max-Delh
          0                 1          11            53  106     3       0.1856053293E+01      89   66    1      -0.6089899588E+05      0.2885802449E+06      0.1894476441E+03      0.1856053293E+01
          0                 2          10            55   81     2       0.1270067275E+01      55  105    2      -0.6998283125E+04      0.2988096627E+05      0.2885802449E+06      0.1270067275E+01
          0                 3           6            55   81     2      -0.1155127246E+00      55   81    2      -0.3503017189E+03      0.3724040703E+03      0.2988096627E+05     -0.1155127246E+00
          0                 4           4            25   78     2       0.3570896485E-03      18   27    2       0.4767221101E+01      0.4834788845E+01      0.3724040703E+03      0.3570896485E-03

    ------------------------------------------------
       NWT REQUIRED            4 OUTER ITERATIONS 
       AND A TOTAL OF         31 INNER ITERATIONS.
    ------------------------------------------------

 NO OUTPUT CONTROL FOR STRESS PERIOD   35   TIME STEP    3

 SOLVING FOR HEAD 
                                                   Max.-Head-Change                        Max.-Flux-Residual
  Residual-Control   Outer-Iter.   Inner-Iter.     Column Row Layer    Max.-Head-Change    Column Row Layer    Max.-Flux-Residual            L2-New               L2-Old           Solver-Max-Delh
          0                 1          11            53  106     3       0.1771679738E+01      89   66    1      -0.5536012638E+05      0.2641635335E+06      0.4834788845E+01      0.1771679738E+01
          0                 2          10            55  105     3       0.3602640403E+00      55  105    3       0.8333770629E+04      0.2767598363E+05      0.2641635335E+06      0.3602640403E+00
          0                 3           6            55  105     3      -0.3274259960E-01      55  105    3      -0.8179439152E+03      0.8652804194E+03      0.2767598363E+05     -0.3274259960E-01
          0                 4           2            25   78     2       0.3531329628E-03      31   63    3       0.1008053198E+00      0.1826735588E+00      0.8652804194E+03      0.3531329628E-03

    ------------------------------------------------
       NWT REQUIRED            4 OUTER ITERATIONS 
       AND A TOTAL OF         29 INNER ITERATIONS.
    ------------------------------------------------

 NO OUTPUT CONTROL FOR STRESS PERIOD   35   TIME STEP    4

 SOLVING FOR HEAD 
                                                   Max.-Head-Change                        Max.-Flux-Residual
  Residual-Control   Outer-Iter.   Inner-Iter.     Column Row Layer    Max.-Head-Change    Column Row Layer    Max.-Flux-Residual            L2-New               L2-Old           Solver-Max-Delh
          0                 1          11            38   34     2       0.1907045297E+01      89   66    1      -0.5065265547E+05      0.2483656698E+06      0.1826735588E+00      0.1907045297E+01
          0                 2          10            38   34     2      -0.1733683108E+00      89   66    1       0.5039452375E+04      0.2487134601E+05      0.2483656698E+06     -0.1733683108E+00
          0                 3           5            25   77     2       0.1458480581E-02      24    5    2       0.3727596680E+02      0.4033906035E+02      0.2487134601E+05      0.1458480581E-02

    ------------------------------------------------
       NWT REQUIRED            3 OUTER ITERATIONS 
       AND A TOTAL OF         26 INNER ITERATIONS.
    ------------------------------------------------

 NO OUTPUT CONTROL FOR STRESS PERIOD   35   TIME STEP    5

 SOLVING FOR HEAD 
                                                   Max.-Head-Change                        Max.-Flux-Residual
  Residual-Control   Outer-Iter.   Inner-Iter.     Column Row Layer    Max.-Head-Change    Column Row Layer    Max.-Flux-Residual            L2-New               L2-Old           Solver-Max-Delh
          0                 1          11            52  107     3       0.1641058142E+01      89   66    1      -0.4648901268E+05      0.2367404274E+06      0.4033906035E+02      0.1641058142E+01
          0                 2           9            52  107     3      -0.1492868475E+00      89   66    1       0.4627624117E+04      0.2376596558E+05      0.2367404274E+06     -0.1492868475E+00
          0                 3           5            25   78     2       0.1470003686E-02      58   37    2      -0.2708138071E+02      0.3045817607E+02      0.2376596558E+05      0.1470003686E-02

    ------------------------------------------------
       NWT REQUIRED            3 OUTER ITERATIONS 
       AND A TOTAL OF         25 INNER ITERATIONS.
    ------------------------------------------------

 NO OUTPUT CONTROL FOR STRESS PERIOD   35   TIME STEP    6

 SOLVING FOR HEAD 
                                                   Max.-Head-Change                        Max.-Flux-Residual
  Residual-Control   Outer-Iter.   Inner-Iter.     Column Row Layer    Max.-Head-Change    Column Row Layer    Max.-Flux-Residual            L2-New               L2-Old           Solver-Max-Delh
          0                 1          11            52  107     3       0.1617445732E+01      88   65    1      -0.4354606888E+05      0.2275282130E+06      0.3045817607E+02      0.1617445732E+01
          0                 2           9            52  107     3      -0.1490934208E+00      88   65    1       0.4344129789E+04      0.2280735076E+05      0.2275282130E+06     -0.1490934208E+00
          0                 3           5            54  112     2      -0.3619240151E-02      54  112    2      -0.1412045194E+03      0.1451740678E+03      0.2280735076E+05     -0.3619240151E-02

    ------------------------------------------------
       NWT REQUIRED            3 OUTER ITERATIONS 
       AND A TOTAL OF         25 INNER ITERATIONS.
    ------------------------------------------------

 NO OUTPUT CONTROL FOR STRESS PERIOD   35   TIME STEP    7

 SOLVING FOR HEAD 
                                                   Max.-Head-Change                        Max.-Flux-Residual
  Residual-Control   Outer-Iter.   Inner-Iter.     Column Row Layer    Max.-Head-Change    Column Row Layer    Max.-Flux-Residual            L2-New               L2-Old           Solver-Max-Delh
          0                 1          11            52  107     3       0.1588346060E+01      88   65    1      -0.4168200216E+05      0.2199472698E+06      0.1451740678E+03      0.1588346060E+01
          0                 2           9            91   67     1      -0.1471747780E+01      54  107    3       0.1151316358E+05      0.2636485712E+05      0.2199472698E+06     -0.1471747780E+01
          0                 3           6            91   67     1       0.1231072586E+00      54  107    3      -0.1142411962E+04      0.1510208460E+04      0.2636485712E+05      0.1231072586E+00
          0                 4           2            91   67     1       0.8935502948E-03      91   67    1       0.4815978065E+01      0.4989653674E+01      0.1510208460E+04      0.8935502948E-03

    ------------------------------------------------
       NWT REQUIRED            4 OUTER ITERATIONS 
       AND A TOTAL OF         28 INNER ITERATIONS.
    ------------------------------------------------

 NO OUTPUT CONTROL FOR STRESS PERIOD   35   TIME STEP    8

 SOLVING FOR HEAD 
                                                   Max.-Head-Change                        Max.-Flux-Residual
  Residual-Control   Outer-Iter.   Inner-Iter.     Column Row Layer    Max.-Head-Change    Column Row Layer    Max.-Flux-Residual            L2-New               L2-Old           Solver-Max-Delh
          0                 1          11            91   67     1      -0.4293398001E+01      88   65    1      -0.3995559982E+05      0.2140888489E+06      0.4989653674E+01     -0.4293398001E+01
          0                 2           9            91   67     1       0.3589628703E+00      88   65    1       0.3986998431E+04      0.2144782260E+05      0.2140888489E+06      0.3589628703E+00
          0                 3           5            24    5     1       0.7660895367E-02      24    5    1       0.9496381674E+02      0.9931538347E+02      0.2144782260E+05      0.7660895367E-02

    ------------------------------------------------
       NWT REQUIRED            3 OUTER ITERATIONS 
       AND A TOTAL OF         25 INNER ITERATIONS.
    ------------------------------------------------

 NO OUTPUT CONTROL FOR STRESS PERIOD   35   TIME STEP    9

 SOLVING FOR HEAD 
                                                   Max.-Head-Change                        Max.-Flux-Residual
  Residual-Control   Outer-Iter.   Inner-Iter.     Column Row Layer    Max.-Head-Change    Column Row Layer    Max.-Flux-Residual            L2-New               L2-Old           Solver-Max-Delh
          0                 1          11            52  107     3       0.1540322064E+01      88   65    1      -0.3835327927E+05      0.2103601090E+06      0.9931538347E+02      0.1540322064E+01
          0                 2           9            52  107     3      -0.1401530805E+00      88   65    1       0.3827559768E+04      0.2110836090E+05      0.2103601090E+06     -0.1401530805E+00
          0                 3           4            25   78     2       0.1457839499E-02      91   67    1       0.3606726147E+01      0.1052107959E+02      0.2110836090E+05      0.1457839499E-02

    ------------------------------------------------
       NWT REQUIRED            3 OUTER ITERATIONS 
       AND A TOTAL OF         24 INNER ITERATIONS.
    ------------------------------------------------

 NO OUTPUT CONTROL FOR STRESS PERIOD   35   TIME STEP   10

 SOLVING FOR HEAD 
                                                   Max.-Head-Change                        Max.-Flux-Residual
  Residual-Control   Outer-Iter.   Inner-Iter.     Column Row Layer    Max.-Head-Change    Column Row Layer    Max.-Flux-Residual            L2-New               L2-Old           Solver-Max-Delh
          0                 1          11            52  107     3       0.1513427138E+01      88   65    1      -0.3686353371E+05      0.2052455928E+06      0.1052107959E+02      0.1513427138E+01
          0                 2           9            53  107     3       0.1373727201E+01      53  107    3       0.5484120117E+04      0.2137752527E+05      0.2052455928E+06      0.1373727201E+01
          0                 3           5            53  107     3      -0.1248603588E+00      53  107    3      -0.5318687574E+03      0.5937839601E+03      0.2137752527E+05     -0.1248603588E+00
          0                 4           2            25   78     2       0.3521984447E-03      22    2    1       0.3724717200E+00      0.4504251931E+00      0.5937839601E+03      0.3521984447E-03

    ------------------------------------------------
       NWT REQUIRED            4 OUTER ITERATIONS 
       AND A TOTAL OF         27 INNER ITERATIONS.
    ------------------------------------------------

 NO OUTPUT CONTROL FOR STRESS PERIOD   35   TIME STEP   11

 SOLVING FOR HEAD 
                                                   Max.-Head-Change                        Max.-Flux-Residual
  Residual-Control   Outer-Iter.   Inner-Iter.     Column Row Layer    Max.-Head-Change    Column Row Layer    Max.-Flux-Residual            L2-New               L2-Old           Solver-Max-Delh
          0                 1          11            53  107     3       0.4713213980E+01      88   65    1      -0.3547471118E+05      0.2008157878E+06      0.4504251931E+00      0.4713213980E+01
          0                 2           9            53  107     3      -0.4299622438E+00      88   65    1       0.3541045634E+04      0.2008496286E+05      0.2008157878E+06     -0.4299622438E+00
          0                 3           4            72  101     2      -0.1591262202E-02      72  101    2      -0.1200409475E+02      0.1664934825E+02      0.2008496286E+05     -0.1591262202E-02

    ------------------------------------------------
       NWT REQUIRED            3 OUTER ITERATIONS 
       AND A TOTAL OF         24 INNER ITERATIONS.
    ------------------------------------------------

 OUTPUT CONTROL FOR STRESS PERIOD   35   TIME STEP   12
    SAVE BUDGET
 UBDSV1 SAVING "         STORAGE" ON UNIT  39 AT TIME STEP 12, STRESS PERIOD  35
 UBDSV2 SAVING "   CONSTANT HEAD" ON UNIT  39 AT TIME STEP 12, STRESS PERIOD  35
 UBDSV1 SAVING "FLOW RIGHT FACE " ON UNIT  39 AT TIME STEP 12, STRESS PERIOD  35
 UBDSV1 SAVING "FLOW FRONT FACE " ON UNIT  39 AT TIME STEP 12, STRESS PERIOD  35
 UBDSV1 SAVING "FLOW LOWER FACE " ON UNIT  39 AT TIME STEP 12, STRESS PERIOD  35
 UBDSV3 SAVING "              ET" ON UNIT  39 AT TIME STEP 12, STRESS PERIOD  35
 UBDSV3 SAVING "        RECHARGE" ON UNIT  39 AT TIME STEP 12, STRESS PERIOD  35
1
  VOLUMETRIC BUDGET FOR ENTIRE MODEL AT END OF TIME STEP   12, STRESS PERIOD  35
  ------------------------------------------------------------------------------

     CUMULATIVE VOLUMES      L**3       RATES FOR THIS TIME STEP      L**3/T
     ------------------                 ------------------------

           IN:                                      IN:
           ---                                      ---
             STORAGE = 29948979200.0000               STORAGE =     2328543.2500
       CONSTANT HEAD = 12097801216.0000         CONSTANT HEAD =      948603.8125
               WELLS =   324179520.0000                 WELLS =           0.0000
                  ET =           0.0000                    ET =           0.0000
            RECHARGE =218452361216.0000              RECHARGE =    19396166.0000

            TOTAL IN =260823318528.0000              TOTAL IN =    22673312.0000

          OUT:                                     OUT:
          ----                                     ----
             STORAGE = 60504145920.0000               STORAGE =     5201137.0000
       CONSTANT HEAD = 79047188480.0000         CONSTANT HEAD =     7662620.0000
               WELLS =   517929280.0000                 WELLS =       10144.0000
                  ET =120754380800.0000                    ET =     9799440.0000
            RECHARGE =           0.0000              RECHARGE =           0.0000

           TOTAL OUT =260823646208.0000             TOTAL OUT =    22673340.0000

            IN - OUT =     -327680.0000              IN - OUT =         -28.0000

 PERCENT DISCREPANCY =          -0.00     PERCENT DISCREPANCY =          -0.00






         TIME SUMMARY AT END OF TIME STEP   12 IN STRESS PERIOD   35
                    SECONDS     MINUTES      HOURS       DAYS        YEARS
                    -----------------------------------------------------------
   TIME STEP LENGTH 2.62800E+06  43800.      730.00      30.417     8.32763E-02
 STRESS PERIOD TIME 3.15360E+07 5.25600E+05  8760.0      365.00     0.99932    
         TOTAL TIME 1.10454E+09 1.84090E+07 3.06817E+05  12784.      35.001    
1
1
                            STRESS PERIOD NO.   36, LENGTH =   365.0000    
                            -----------------------------------------------

                              NUMBER OF TIME STEPS =    12

                               MULTIPLIER FOR DELT =     1.000

                            INITIAL TIME STEP SIZE =   30.41667    

 WELL NO.  LAYER   ROW   COL   STRESS RATE         
 --------------------------------------------------
      1      2     35     48      -9130.    

      1 WELL 

 REUSING SURF FROM LAST STRESS PERIOD

 REUSING EVTR FROM LAST STRESS PERIOD

 REUSING EXDP FROM LAST STRESS PERIOD



                           RECHARGE
 READING ON UNIT   16 WITH FORMAT: (15F5.0)            


     63 TIME-VARIANT SPECIFIED-HEAD CELLS

 SOLVING FOR HEAD 
                                                   Max.-Head-Change                        Max.-Flux-Residual
  Residual-Control   Outer-Iter.   Inner-Iter.     Column Row Layer    Max.-Head-Change    Column Row Layer    Max.-Flux-Residual            L2-New               L2-Old           Solver-Max-Delh
          0                 1          11            36   66     1      -0.1382926154E+02      34   59    1       0.1082418043E+06      0.4885223051E+06      0.1664934825E+02     -0.1382926154E+02
          0                 2          10            34   59     1      -0.8268710833E+00      34   59    1      -0.1057259598E+05      0.4935434169E+05      0.4885223051E+06     -0.8268710833E+00
          0                 3           5            36   66     1       0.2022468748E-01      53   48    1      -0.1955551801E+03      0.3002599597E+03      0.4935434169E+05      0.2022468748E-01
          0                 4           3            13   85     1       0.8481736174E-03      53   48    1      -0.1760027227E+02      0.1777854971E+02      0.3002599597E+03      0.8481736174E-03

    ------------------------------------------------
       NWT REQUIRED            4 OUTER ITERATIONS 
       AND A TOTAL OF         29 INNER ITERATIONS.
    ------------------------------------------------

 NO OUTPUT CONTROL FOR STRESS PERIOD   36   TIME STEP    1

 SOLVING FOR HEAD 
                                                   Max.-Head-Change                        Max.-Flux-Residual
  Residual-Control   Outer-Iter.   Inner-Iter.     Column Row Layer    Max.-Head-Change    Column Row Layer    Max.-Flux-Residual            L2-New               L2-Old           Solver-Max-Delh
          0                 1          11            34   59     2       0.2167145198E+01      34   59    2       0.7634028177E+05      0.3167847731E+06      0.1777854971E+02      0.2167145198E+01
          0                 2          10            51  103     3       0.2005878396E+02      51  103    3       0.2522203375E+05      0.4048910251E+05      0.3167847731E+06      0.2005878396E+02
          0                 3           5            51  103     3      -0.1823555386E+01      51  103    3      -0.2522203419E+04      0.2562189895E+04      0.4048910251E+05     -0.1823555386E+01
          0                 4           2            25   78     2       0.3458825646E-03      53   48    1       0.1410337090E+00      0.2426463798E+00      0.2562189895E+04      0.3458825646E-03

    ------------------------------------------------
       NWT REQUIRED            4 OUTER ITERATIONS 
       AND A TOTAL OF         28 INNER ITERATIONS.
    ------------------------------------------------

 NO OUTPUT CONTROL FOR STRESS PERIOD   36   TIME STEP    2

 INTERPOLATION FOR HEAD OBS# 1739, ID 2615-36-64   CHANGED BECAUSE AT LEAST ONE
 NEIGHBORING CELL REQUIRED FOR INTERPOLATION IS DRY OR INACTIVE (OBS2BAS7SE)

 INTERPOLATION FOR HEAD OBS# 8375, ID 1428-36-91   CHANGED BECAUSE AT LEAST ONE
 NEIGHBORING CELL REQUIRED FOR INTERPOLATION IS DRY OR INACTIVE (OBS2BAS7SE)

 SOLVING FOR HEAD 
                                                   Max.-Head-Change                        Max.-Flux-Residual
  Residual-Control   Outer-Iter.   Inner-Iter.     Column Row Layer    Max.-Head-Change    Column Row Layer    Max.-Flux-Residual            L2-New               L2-Old           Solver-Max-Delh
          0                 1          11            51  103     3       0.1482582677E+02      34   59    2       0.5415061044E+05      0.2654748588E+06      0.2426463798E+00      0.1482582677E+02
          0                 2           9            51  103     3      -0.1348283389E+01      34   59    2      -0.5530450556E+04      0.2660455549E+05      0.2654748588E+06     -0.1348283389E+01
          0                 3           5            28   41     1      -0.4081829754E-02      28   41    1      -0.2194658828E+03      0.3054714534E+03      0.2660455549E+05     -0.4081829754E-02

    ------------------------------------------------
       NWT REQUIRED            3 OUTER ITERATIONS 
       AND A TOTAL OF         25 INNER ITERATIONS.
    ------------------------------------------------

 NO OUTPUT CONTROL FOR STRESS PERIOD   36   TIME STEP    3

 SOLVING FOR HEAD 
                                                   Max.-Head-Change                        Max.-Flux-Residual
  Residual-Control   Outer-Iter.   Inner-Iter.     Column Row Layer    Max.-Head-Change    Column Row Layer    Max.-Flux-Residual            L2-New               L2-Old           Solver-Max-Delh
          0                 1          11            51  104     3       0.2468478584E+01      51  104    3       0.5452063290E+05      0.2423765783E+06      0.3054714534E+03      0.2468478584E+01
          0                 2           9            73   15     2      -0.3578236137E+00      51  104    3      -0.5475242831E+04      0.2469075528E+05      0.2423765783E+06     -0.3578236137E+00
          0                 3           5            73   15     2       0.2986954837E-01      73   15    2       0.2240063395E+03      0.2285064807E+03      0.2469075528E+05      0.2986954837E-01
          0                 4           2            73   15     1       0.3557873734E-03      73   15    1       0.7719461713E+00      0.1041983030E+01      0.2285064807E+03      0.3557873734E-03

    ------------------------------------------------
       NWT REQUIRED            4 OUTER ITERATIONS 
       AND A TOTAL OF         27 INNER ITERATIONS.
    ------------------------------------------------

 NO OUTPUT CONTROL FOR STRESS PERIOD   36   TIME STEP    4

 SOLVING FOR HEAD 
                                                   Max.-Head-Change                        Max.-Flux-Residual
  Residual-Control   Outer-Iter.   Inner-Iter.     Column Row Layer    Max.-Head-Change    Column Row Layer    Max.-Flux-Residual            L2-New               L2-Old           Solver-Max-Delh
          0                 1          11            51  104     3       0.2323699380E+01      51  104    3       0.5153662269E+05      0.2274315090E+06      0.1041983030E+01      0.2323699380E+01
          0                 2           9            51  104     3      -0.2118618130E+00      51  104    3      -0.5172956247E+04      0.2275364060E+05      0.2274315090E+06     -0.2118618130E+00
          0                 3           5            25   78     2       0.1418113403E-02      55   97    2      -0.2574127546E+01      0.1162221922E+02      0.2275364060E+05      0.1418113403E-02

    ------------------------------------------------
       NWT REQUIRED            3 OUTER ITERATIONS 
       AND A TOTAL OF         25 INNER ITERATIONS.
    ------------------------------------------------

 NO OUTPUT CONTROL FOR STRESS PERIOD   36   TIME STEP    5

 INTERPOLATION FOR HEAD OBS# 6300, ID 773-36-156   CHANGED BECAUSE AT LEAST ONE
 NEIGHBORING CELL REQUIRED FOR INTERPOLATION IS DRY OR INACTIVE (OBS2BAS7SE)

 SOLVING FOR HEAD 
                                                   Max.-Head-Change                        Max.-Flux-Residual
  Residual-Control   Outer-Iter.   Inner-Iter.     Column Row Layer    Max.-Head-Change    Column Row Layer    Max.-Flux-Residual            L2-New               L2-Old           Solver-Max-Delh
          0                 1          11            51  104     3       0.2191648039E+01      51  104    3       0.4851684345E+05      0.2170630226E+06      0.1162221922E+02      0.2191648039E+01
          0                 2           9            36   65     2      -0.1906559238E+01      51  104    3      -0.4867753761E+04      0.2185082369E+05      0.2170630226E+06     -0.1906559238E+01
          0                 3           5            36   65     2       0.1189190618E+00      36   65    2       0.2868633342E+03      0.3008838962E+03      0.2185082369E+05      0.1189190618E+00
          0                 4           3            36   65     1       0.3479710160E-02      36   65    2       0.3344857436E+01      0.4691187167E+01      0.3008838962E+03      0.3479710160E-02

    ------------------------------------------------
       NWT REQUIRED            4 OUTER ITERATIONS 
       AND A TOTAL OF         28 INNER ITERATIONS.
    ------------------------------------------------

 NO OUTPUT CONTROL FOR STRESS PERIOD   36   TIME STEP    6

 SOLVING FOR HEAD 
                                                   Max.-Head-Change                        Max.-Flux-Residual
  Residual-Control   Outer-Iter.   Inner-Iter.     Column Row Layer    Max.-Head-Change    Column Row Layer    Max.-Flux-Residual            L2-New               L2-Old           Solver-Max-Delh
          0                 1          11            36   65     2      -0.1017498925E+02      51  104    3       0.4576221469E+05      0.2089215131E+06      0.4691187167E+01     -0.1017498925E+02
          0                 2           9            36   65     2       0.6359980388E+00      51  104    3      -0.4589622481E+04      0.2101880046E+05      0.2089215131E+06      0.6359980388E+00
          0                 3           5            70   17     1       0.4195341451E-01      70   17    1       0.2318463964E+03      0.2367001258E+03      0.2101880046E+05      0.4195341451E-01
          0                 4           3            36   65     1       0.5195323790E-03      70   17    1       0.1352823906E+01      0.1568050719E+01      0.2367001258E+03      0.5195323790E-03

    ------------------------------------------------
       NWT REQUIRED            4 OUTER ITERATIONS 
       AND A TOTAL OF         28 INNER ITERATIONS.
    ------------------------------------------------

 NO OUTPUT CONTROL FOR STRESS PERIOD   36   TIME STEP    7

 SOLVING FOR HEAD 
                                                   Max.-Head-Change                        Max.-Flux-Residual
  Residual-Control   Outer-Iter.   Inner-Iter.     Column Row Layer    Max.-Head-Change    Column Row Layer    Max.-Flux-Residual            L2-New               L2-Old           Solver-Max-Delh
          0                 1          11            51  104     3       0.1962989467E+01      51  104    3       0.4326159195E+05      0.2022689769E+06      0.1568050719E+01      0.1962989467E+01
          0                 2           9            51  104     3      -0.1788116290E+00      51  104    3      -0.4337349376E+04      0.2032136583E+05      0.2022689769E+06     -0.1788116290E+00
          0                 3           5            25   78     2       0.1408089514E-02      55   97    2      -0.2403125115E+01      0.1016968452E+02      0.2032136583E+05      0.1408089514E-02

    ------------------------------------------------
       NWT REQUIRED            3 OUTER ITERATIONS 
       AND A TOTAL OF         25 INNER ITERATIONS.
    ------------------------------------------------

 NO OUTPUT CONTROL FOR STRESS PERIOD   36   TIME STEP    8

 SOLVING FOR HEAD 
                                                   Max.-Head-Change                        Max.-Flux-Residual
  Residual-Control   Outer-Iter.   Inner-Iter.     Column Row Layer    Max.-Head-Change    Column Row Layer    Max.-Flux-Residual            L2-New               L2-Old           Solver-Max-Delh
          0                 1          11            51  104     3       0.1864198811E+01      51  104    3       0.4099162144E+05      0.1971156834E+06      0.1016968452E+02      0.1864198811E+01
          0                 2           9            51  104     3      -0.1697723152E+00      51  104    3      -0.4108517716E+04      0.1986698641E+05      0.1971156834E+06     -0.1697723152E+00
          0                 3           5            25   78     2       0.1419854978E-02      55   97    2      -0.2349308752E+01      0.9901058947E+01      0.1986698641E+05      0.1419854978E-02

    ------------------------------------------------
       NWT REQUIRED            3 OUTER ITERATIONS 
       AND A TOTAL OF         25 INNER ITERATIONS.
    ------------------------------------------------

 NO OUTPUT CONTROL FOR STRESS PERIOD   36   TIME STEP    9

 SOLVING FOR HEAD 
                                                   Max.-Head-Change                        Max.-Flux-Residual
  Residual-Control   Outer-Iter.   Inner-Iter.     Column Row Layer    Max.-Head-Change    Column Row Layer    Max.-Flux-Residual            L2-New               L2-Old           Solver-Max-Delh
          0                 1          11            51  104     3       0.1774441414E+01      51  104    3       0.3893023919E+05      0.1927952607E+06      0.9901058947E+01      0.1774441414E+01
          0                 2           9            51  104     3      -0.1615640911E+00      51  104    3      -0.3900854415E+04      0.1928331155E+05      0.1927952607E+06     -0.1615640911E+00
          0                 3           5            25   78     2       0.1416443542E-02      55   97    2      -0.2297007283E+01      0.9726634429E+01      0.1928331155E+05      0.1416443542E-02

    ------------------------------------------------
       NWT REQUIRED            3 OUTER ITERATIONS 
       AND A TOTAL OF         25 INNER ITERATIONS.
    ------------------------------------------------

 NO OUTPUT CONTROL FOR STRESS PERIOD   36   TIME STEP   10

 SOLVING FOR HEAD 
                                                   Max.-Head-Change                        Max.-Flux-Residual
  Residual-Control   Outer-Iter.   Inner-Iter.     Column Row Layer    Max.-Head-Change    Column Row Layer    Max.-Flux-Residual            L2-New               L2-Old           Solver-Max-Delh
          0                 1          11            51  104     3       0.1692832132E+01      51  104    3       0.3705722820E+05      0.1890556582E+06      0.9726634429E+01      0.1692832132E+01
          0                 2           9            51  104     3      -0.1541047312E+00      51  104    3      -0.3712283191E+04      0.1890646589E+05      0.1890556582E+06     -0.1541047312E+00
          0                 3           5            25   78     2       0.1412786955E-02      55   97    2      -0.2246160710E+01      0.9571357549E+01      0.1890646589E+05      0.1412786955E-02

    ------------------------------------------------
       NWT REQUIRED            3 OUTER ITERATIONS 
       AND A TOTAL OF         25 INNER ITERATIONS.
    ------------------------------------------------

 NO OUTPUT CONTROL FOR STRESS PERIOD   36   TIME STEP   11

 INTERPOLATION FOR HEAD OBS# 5687, ID 1168-36-335  CHANGED BECAUSE AT LEAST ONE
 NEIGHBORING CELL REQUIRED FOR INTERPOLATION IS DRY OR INACTIVE (OBS2BAS7SE)

 SOLVING FOR HEAD 
                                                   Max.-Head-Change                        Max.-Flux-Residual
  Residual-Control   Outer-Iter.   Inner-Iter.     Column Row Layer    Max.-Head-Change    Column Row Layer    Max.-Flux-Residual            L2-New               L2-Old           Solver-Max-Delh
          0                 1          11            51  104     3       0.1618562456E+01      81   46    1      -0.3587821186E+05      0.1857574360E+06      0.9571357549E+01      0.1618562456E+01
          0                 2           9            56   82     2       0.3288067248E+00      48   29    2       0.4179553387E+04      0.1925201439E+05      0.1857574360E+06      0.3288067248E+00
          0                 3           6            56   82     2      -0.2989174470E-01      48   29    2      -0.4179941712E+03      0.4659591691E+03      0.1925201439E+05     -0.2989174470E-01
          0                 4           2            25   78     2       0.3411833145E-03      25   78    2       0.2739644800E-01      0.9685230536E-01      0.4659591691E+03      0.3411833145E-03

    ------------------------------------------------
       NWT REQUIRED            4 OUTER ITERATIONS 
       AND A TOTAL OF         28 INNER ITERATIONS.
    ------------------------------------------------

 OUTPUT CONTROL FOR STRESS PERIOD   36   TIME STEP   12
    SAVE BUDGET
    SAVE HEAD FOR LAYERS:   1  2  3
 UBDSV1 SAVING "         STORAGE" ON UNIT  39 AT TIME STEP 12, STRESS PERIOD  36
 UBDSV2 SAVING "   CONSTANT HEAD" ON UNIT  39 AT TIME STEP 12, STRESS PERIOD  36
 UBDSV1 SAVING "FLOW RIGHT FACE " ON UNIT  39 AT TIME STEP 12, STRESS PERIOD  36
 UBDSV1 SAVING "FLOW FRONT FACE " ON UNIT  39 AT TIME STEP 12, STRESS PERIOD  36
 UBDSV1 SAVING "FLOW LOWER FACE " ON UNIT  39 AT TIME STEP 12, STRESS PERIOD  36
 UBDSV3 SAVING "              ET" ON UNIT  39 AT TIME STEP 12, STRESS PERIOD  36
 UBDSV3 SAVING "        RECHARGE" ON UNIT  39 AT TIME STEP 12, STRESS PERIOD  36

 HEAD WILL BE SAVED ON UNIT   31 AT END OF TIME STEP   12, STRESS PERIOD   36
1
  VOLUMETRIC BUDGET FOR ENTIRE MODEL AT END OF TIME STEP   12, STRESS PERIOD  36
  ------------------------------------------------------------------------------

     CUMULATIVE VOLUMES      L**3       RATES FOR THIS TIME STEP      L**3/T
     ------------------                 ------------------------

           IN:                                      IN:
           ---                                      ---
             STORAGE = 30837155840.0000               STORAGE =     2003154.8750
       CONSTANT HEAD = 12430121984.0000         CONSTANT HEAD =      892071.4375
               WELLS =   324179520.0000                 WELLS =           0.0000
                  ET =           0.0000                    ET =           0.0000
            RECHARGE =225606926336.0000              RECHARGE =    19601790.0000

            TOTAL IN =269198376960.0000              TOTAL IN =    22497016.0000

          OUT:                                     OUT:
          ----                                     ----
             STORAGE = 62607634432.0000               STORAGE =     5445396.5000
       CONSTANT HEAD = 81821696000.0000         CONSTANT HEAD =     7597933.0000
               WELLS =   521261632.0000                 WELLS =        9130.0000
                  ET =124248227840.0000                    ET =     9444583.0000
            RECHARGE =           0.0000              RECHARGE =           0.0000

           TOTAL OUT =269198819328.0000             TOTAL OUT =    22497044.0000

            IN - OUT =     -442368.0000              IN - OUT =         -28.0000

 PERCENT DISCREPANCY =          -0.00     PERCENT DISCREPANCY =          -0.00






         TIME SUMMARY AT END OF TIME STEP   12 IN STRESS PERIOD   36
                    SECONDS     MINUTES      HOURS       DAYS        YEARS
                    -----------------------------------------------------------
   TIME STEP LENGTH 2.62800E+06  43800.      730.00      30.417     8.32763E-02
 STRESS PERIOD TIME 3.15360E+07 5.25600E+05  8760.0      365.00     0.99932    
         TOTAL TIME 1.13608E+09 1.89346E+07 3.15577E+05  13149.      36.000    
1
1
                            STRESS PERIOD NO.   37, LENGTH =   366.0000    
                            -----------------------------------------------

                              NUMBER OF TIME STEPS =    12

                               MULTIPLIER FOR DELT =     1.000

                            INITIAL TIME STEP SIZE =   30.50000    

 WELL NO.  LAYER   ROW   COL   STRESS RATE         
 --------------------------------------------------
      1      2     36     45      -8951.    

      1 WELL 

 REUSING SURF FROM LAST STRESS PERIOD

 REUSING EVTR FROM LAST STRESS PERIOD

 REUSING EXDP FROM LAST STRESS PERIOD



                           RECHARGE
 READING ON UNIT   16 WITH FORMAT: (15F5.0)            


     63 TIME-VARIANT SPECIFIED-HEAD CELLS

 SOLVING FOR HEAD 
                                                   Max.-Head-Change                        Max.-Flux-Residual
  Residual-Control   Outer-Iter.   Inner-Iter.     Column Row Layer    Max.-Head-Change    Column Row Layer    Max.-Flux-Residual            L2-New               L2-Old           Solver-Max-Delh
          0                 1          11            36   65     1       0.2506004866E+02      46   35    1      -0.7250415672E+05      0.3764537638E+06      0.9685230536E-01      0.2506004866E+02
          0                 2          10            36   65     1      -0.1060940462E+02      36   65    2      -0.3250507517E+06      0.3273097164E+06      0.3764537638E+06     -0.1060940462E+02
          0                 3           7            35   65     2       0.7405440290E+00      36   65    2      -0.6596674853E+04      0.7362032788E+04      0.3273097164E+06      0.7405440290E+00
          0                 4           5            35   65     1       0.1103875129E+00      35   65    2       0.2128395083E+03      0.3488321512E+03      0.7362032788E+04      0.1103875129E+00
          0                 5           4            35   65     1       0.1290288850E-01      35   65    2       0.2214364589E+02      0.3625318113E+02      0.3488321512E+03      0.1290288850E-01
          0                 6           3            35   65     1       0.1505815682E-02      35   65    2       0.2338788060E+01      0.3943304589E+01      0.3625318113E+02      0.1505815682E-02

    ------------------------------------------------
       NWT REQUIRED            6 OUTER ITERATIONS 
       AND A TOTAL OF         40 INNER ITERATIONS.
    ------------------------------------------------

 NO OUTPUT CONTROL FOR STRESS PERIOD   37   TIME STEP    1

 INTERPOLATION FOR HEAD OBS# 1761, ID 2498-37-34   CHANGED BECAUSE AT LEAST ONE
 NEIGHBORING CELL REQUIRED FOR INTERPOLATION IS DRY OR INACTIVE (OBS2BAS7SE)

 INTERPOLATION FOR HEAD OBS# 6993, ID 683-37-32    CHANGED BECAUSE AT LEAST ONE
 NEIGHBORING CELL REQUIRED FOR INTERPOLATION IS DRY OR INACTIVE (OBS2BAS7SE)

 INTERPOLATION FOR HEAD OBS# 7371, ID 451-37-32    CHANGED BECAUSE AT LEAST ONE
 NEIGHBORING CELL REQUIRED FOR INTERPOLATION IS DRY OR INACTIVE (OBS2BAS7SE)

 SOLVING FOR HEAD 
                                                   Max.-Head-Change                        Max.-Flux-Residual
  Residual-Control   Outer-Iter.   Inner-Iter.     Column Row Layer    Max.-Head-Change    Column Row Layer    Max.-Flux-Residual            L2-New               L2-Old           Solver-Max-Delh
          0                 1          11            51  104     3       0.1229234464E+01      19   38    2       0.3606922539E+05      0.2482551544E+06      0.3943304589E+01      0.1229234464E+01
          0                 2          10            19   38     2      -0.1146261919E+00      19   38    2      -0.3774631264E+04      0.2485342260E+05      0.2482551544E+06     -0.1146261919E+00
          0                 3           5            25   78     2       0.1378840412E-02      22   36    2      -0.1694490864E+02      0.2395808942E+02      0.2485342260E+05      0.1378840412E-02

    ------------------------------------------------
       NWT REQUIRED            3 OUTER ITERATIONS 
       AND A TOTAL OF         26 INNER ITERATIONS.
    ------------------------------------------------

 NO OUTPUT CONTROL FOR STRESS PERIOD   37   TIME STEP    2

 SOLVING FOR HEAD 
                                                   Max.-Head-Change                        Max.-Flux-Residual
  Residual-Control   Outer-Iter.   Inner-Iter.     Column Row Layer    Max.-Head-Change    Column Row Layer    Max.-Flux-Residual            L2-New               L2-Old           Solver-Max-Delh
          0                 1          11            51  104     3       0.1192283011E+01      70   47    1      -0.2798257465E+05      0.2142779348E+06      0.2395808942E+02      0.1192283011E+01
          0                 2          10            15    2     1      -0.1125425340E+00      69   47    1       0.2934129570E+04      0.2183547759E+05      0.2142779348E+06     -0.1125425340E+00
          0                 3           5            15    2     1       0.1008827751E-01      15    2    1       0.2473633220E+03      0.2635216485E+03      0.2183547759E+05      0.1008827751E-01
          0                 4           2            25   78     2       0.3365690574E-03      15    2    1       0.2850964963E+00      0.3062574542E+00      0.2635216485E+03      0.3365690574E-03

    ------------------------------------------------
       NWT REQUIRED            4 OUTER ITERATIONS 
       AND A TOTAL OF         28 INNER ITERATIONS.
    ------------------------------------------------

 NO OUTPUT CONTROL FOR STRESS PERIOD   37   TIME STEP    3

 SOLVING FOR HEAD 
                                                   Max.-Head-Change                        Max.-Flux-Residual
  Residual-Control   Outer-Iter.   Inner-Iter.     Column Row Layer    Max.-Head-Change    Column Row Layer    Max.-Flux-Residual            L2-New               L2-Old           Solver-Max-Delh
          0                 1          11            51  104     3       0.1158374544E+01      51  104    3       0.2483586403E+05      0.1992634306E+06      0.3062574542E+00      0.1158374544E+01
          0                 2          10            51  104     3      -0.1053458078E+00      51  104    3      -0.2484737951E+04      0.2003331110E+05      0.1992634306E+06     -0.1053458078E+00
          0                 3           5            56   81     2      -0.5380006533E-02      56   81    2      -0.3554592424E+02      0.5320545987E+02      0.2003331110E+05     -0.5380006533E-02

    ------------------------------------------------
       NWT REQUIRED            3 OUTER ITERATIONS 
       AND A TOTAL OF         26 INNER ITERATIONS.
    ------------------------------------------------

 NO OUTPUT CONTROL FOR STRESS PERIOD   37   TIME STEP    4

 SOLVING FOR HEAD 
                                                   Max.-Head-Change                        Max.-Flux-Residual
  Residual-Control   Outer-Iter.   Inner-Iter.     Column Row Layer    Max.-Head-Change    Column Row Layer    Max.-Flux-Residual            L2-New               L2-Old           Solver-Max-Delh
          0                 1          11            56   81     2       0.2066232821E+01      51  104    3       0.2412993126E+05      0.1902821493E+06      0.5320545987E+02      0.2066232821E+01
          0                 2          10            57   85     3       0.1899714986E+00      51  104    3      -0.2413947358E+04      0.1919104158E+05      0.1902821493E+06      0.1899714986E+00
          0                 3           5            57   85     3      -0.1727126849E-01      57   85    3      -0.1915793929E+03      0.1963173564E+03      0.1919104158E+05     -0.1727126849E-01
          0                 4           2            25   78     2       0.3342410740E-03      25   78    2       0.2681576948E-01      0.1015875286E+00      0.1963173564E+03      0.3342410740E-03

    ------------------------------------------------
       NWT REQUIRED            4 OUTER ITERATIONS 
       AND A TOTAL OF         28 INNER ITERATIONS.
    ------------------------------------------------

 NO OUTPUT CONTROL FOR STRESS PERIOD   37   TIME STEP    5

 SOLVING FOR HEAD 
                                                   Max.-Head-Change                        Max.-Flux-Residual
  Residual-Control   Outer-Iter.   Inner-Iter.     Column Row Layer    Max.-Head-Change    Column Row Layer    Max.-Flux-Residual            L2-New               L2-Old           Solver-Max-Delh
          0                 1          11            51  104     3       0.1098023342E+01      51  104    3       0.2347762567E+05      0.1840329184E+06      0.1015875286E+00      0.1098023342E+01
          0                 2          10            51  104     3      -0.9984761469E-01      51  104    3      -0.2348548599E+04      0.1844291354E+05      0.1840329184E+06     -0.9984761469E-01
          0                 3           5            25   78     2       0.1364054865E-02      55   96    2      -0.1928487927E+01      0.9667128381E+01      0.1844291354E+05      0.1364054865E-02

    ------------------------------------------------
       NWT REQUIRED            3 OUTER ITERATIONS 
       AND A TOTAL OF         26 INNER ITERATIONS.
    ------------------------------------------------

 NO OUTPUT CONTROL FOR STRESS PERIOD   37   TIME STEP    6

 SOLVING FOR HEAD 
                                                   Max.-Head-Change                        Max.-Flux-Residual
  Residual-Control   Outer-Iter.   Inner-Iter.     Column Row Layer    Max.-Head-Change    Column Row Layer    Max.-Flux-Residual            L2-New               L2-Old           Solver-Max-Delh
          0                 1          11            51  104     3       0.1071088479E+01      51  104    3       0.2287344452E+05      0.1792651270E+06      0.9667128381E+01      0.1071088479E+01
          0                 2          10            51  104     3      -0.9739437246E-01      51  104    3      -0.2287986887E+04      0.1793290396E+05      0.1792651270E+06     -0.9739437246E-01
          0                 3           5            25   78     2       0.1372819418E-02      55   96    2      -0.1902314719E+01      0.9246195375E+01      0.1793290396E+05      0.1372819418E-02

    ------------------------------------------------
       NWT REQUIRED            3 OUTER ITERATIONS 
       AND A TOTAL OF         26 INNER ITERATIONS.
    ------------------------------------------------

 NO OUTPUT CONTROL FOR STRESS PERIOD   37   TIME STEP    7

 SOLVING FOR HEAD 
                                                   Max.-Head-Change                        Max.-Flux-Residual
  Residual-Control   Outer-Iter.   Inner-Iter.     Column Row Layer    Max.-Head-Change    Column Row Layer    Max.-Flux-Residual            L2-New               L2-Old           Solver-Max-Delh
          0                 1          11            51  104     3       0.1046034204E+01      51  104    3       0.2231267948E+05      0.1754213116E+06      0.9246195375E+01      0.1046034204E+01
          0                 2           9            51  104     3      -0.9511275401E-01      51  104    3      -0.2231787628E+04      0.1754482111E+05      0.1754213116E+06     -0.9511275401E-01
          0                 3           5            25   78     2       0.1366935938E-02      55   96    2      -0.1876117544E+01      0.9140965264E+01      0.1754482111E+05      0.1366935938E-02

    ------------------------------------------------
       NWT REQUIRED            3 OUTER ITERATIONS 
       AND A TOTAL OF         25 INNER ITERATIONS.
    ------------------------------------------------

 NO OUTPUT CONTROL FOR STRESS PERIOD   37   TIME STEP    8

 SOLVING FOR HEAD 
                                                   Max.-Head-Change                        Max.-Flux-Residual
  Residual-Control   Outer-Iter.   Inner-Iter.     Column Row Layer    Max.-Head-Change    Column Row Layer    Max.-Flux-Residual            L2-New               L2-Old           Solver-Max-Delh
          0                 1          11            52  104     3       0.1026720482E+01      51  104    3       0.2179102921E+05      0.1722623966E+06      0.9140965264E+01      0.1026720482E+01
          0                 2           9            52  104     3      -0.9338168962E-01      15   38    2      -0.3322542532E+04      0.1774447586E+05      0.1722623966E+06     -0.9338168962E-01
          0                 3           5            21    1     1       0.6245812952E-02      21    1    1       0.6254340045E+02      0.7778044040E+02      0.1774447586E+05      0.6245812952E-02

    ------------------------------------------------
       NWT REQUIRED            3 OUTER ITERATIONS 
       AND A TOTAL OF         25 INNER ITERATIONS.
    ------------------------------------------------

 NO OUTPUT CONTROL FOR STRESS PERIOD   37   TIME STEP    9

 SOLVING FOR HEAD 
                                                   Max.-Head-Change                        Max.-Flux-Residual
  Residual-Control   Outer-Iter.   Inner-Iter.     Column Row Layer    Max.-Head-Change    Column Row Layer    Max.-Flux-Residual            L2-New               L2-Old           Solver-Max-Delh
          0                 1          11            52  104     3       0.1015936006E+01      52  104    3       0.2138445325E+05      0.1695221449E+06      0.7778044040E+02      0.1015936006E+01
          0                 2           9            52  104     3      -0.9240071357E-01      21   33    1      -0.2193263141E+04      0.1709188932E+05      0.1695221449E+06     -0.9240071357E-01
          0                 3           5            25   78     2       0.1353785715E-02      55   96    2      -0.1823795961E+01      0.8961233381E+01      0.1709188932E+05      0.1353785715E-02

    ------------------------------------------------
       NWT REQUIRED            3 OUTER ITERATIONS 
       AND A TOTAL OF         25 INNER ITERATIONS.
    ------------------------------------------------

 NO OUTPUT CONTROL FOR STRESS PERIOD   37   TIME STEP   10

 SOLVING FOR HEAD 
                                                   Max.-Head-Change                        Max.-Flux-Residual
  Residual-Control   Outer-Iter.   Inner-Iter.     Column Row Layer    Max.-Head-Change    Column Row Layer    Max.-Flux-Residual            L2-New               L2-Old           Solver-Max-Delh
          0                 1          11            52  104     3       0.1004955350E+01      52  104    3       0.2116003487E+05      0.1671816316E+06      0.8961233381E+01      0.1004955350E+01
          0                 2           9            52  104     3      -0.9140172803E-01      52  104    3      -0.2117288771E+04      0.1690276102E+05      0.1671816316E+06     -0.9140172803E-01
          0                 3           5            25   78     2       0.1346944602E-02      55   96    2      -0.1797739869E+01      0.8830547382E+01      0.1690276102E+05      0.1346944602E-02

    ------------------------------------------------
       NWT REQUIRED            3 OUTER ITERATIONS 
       AND A TOTAL OF         25 INNER ITERATIONS.
    ------------------------------------------------

 NO OUTPUT CONTROL FOR STRESS PERIOD   37   TIME STEP   11

 SOLVING FOR HEAD 
                                                   Max.-Head-Change                        Max.-Flux-Residual
  Residual-Control   Outer-Iter.   Inner-Iter.     Column Row Layer    Max.-Head-Change    Column Row Layer    Max.-Flux-Residual            L2-New               L2-Old           Solver-Max-Delh
          0                 1          11            52  104     3       0.9938490684E+00      52  104    3       0.2093152399E+05      0.1650726451E+06      0.8830547382E+01      0.9938490684E+00
          0                 2           9            41   23     2       0.4159165386E+00      21   49    2      -0.3609751569E+04      0.1700762688E+05      0.1650726451E+06      0.4159165386E+00
          0                 3           6            41   23     2      -0.3780919697E-01      41   23    2      -0.1418776047E+03      0.1483571634E+03      0.1700762688E+05     -0.3780919697E-01
          0                 4           2            25   78     2       0.3236368595E-03      21   50    3       0.8538585976E+00      0.9269286188E+00      0.1483571634E+03      0.3236368595E-03

    ------------------------------------------------
       NWT REQUIRED            4 OUTER ITERATIONS 
       AND A TOTAL OF         28 INNER ITERATIONS.
    ------------------------------------------------

 OUTPUT CONTROL FOR STRESS PERIOD   37   TIME STEP   12
    SAVE BUDGET
 UBDSV1 SAVING "         STORAGE" ON UNIT  39 AT TIME STEP 12, STRESS PERIOD  37
 UBDSV2 SAVING "   CONSTANT HEAD" ON UNIT  39 AT TIME STEP 12, STRESS PERIOD  37
 UBDSV1 SAVING "FLOW RIGHT FACE " ON UNIT  39 AT TIME STEP 12, STRESS PERIOD  37
 UBDSV1 SAVING "FLOW FRONT FACE " ON UNIT  39 AT TIME STEP 12, STRESS PERIOD  37
 UBDSV1 SAVING "FLOW LOWER FACE " ON UNIT  39 AT TIME STEP 12, STRESS PERIOD  37
 UBDSV3 SAVING "              ET" ON UNIT  39 AT TIME STEP 12, STRESS PERIOD  37
 UBDSV3 SAVING "        RECHARGE" ON UNIT  39 AT TIME STEP 12, STRESS PERIOD  37

 INTERPOLATION FOR HEAD OBS# 7524, ID 269-38-4     CHANGED BECAUSE AT LEAST ONE
 NEIGHBORING CELL REQUIRED FOR INTERPOLATION IS DRY OR INACTIVE (OBS2BAS7SE)
1
  VOLUMETRIC BUDGET FOR ENTIRE MODEL AT END OF TIME STEP   12, STRESS PERIOD  37
  ------------------------------------------------------------------------------

     CUMULATIVE VOLUMES      L**3       RATES FOR THIS TIME STEP      L**3/T
     ------------------                 ------------------------

           IN:                                      IN:
           ---                                      ---
             STORAGE = 31472031744.0000               STORAGE =     1474060.0000
       CONSTANT HEAD = 12741684224.0000         CONSTANT HEAD =      822978.7500
               WELLS =   324179520.0000                 WELLS =           0.0000
                  ET =           0.0000                    ET =           0.0000
            RECHARGE =233272475648.0000              RECHARGE =    20944132.0000

            TOTAL IN =277810380800.0000              TOTAL IN =    23241170.0000

          OUT:                                     OUT:
          ----                                     ----
             STORAGE = 64927457280.0000               STORAGE =     6012184.0000
       CONSTANT HEAD = 84641234944.0000         CONSTANT HEAD =     7731044.0000
               WELLS =   524537536.0000                 WELLS =        8951.0000
                  ET =127717580800.0000                    ET =     9489018.0000
            RECHARGE =           0.0000              RECHARGE =           0.0000

           TOTAL OUT =277810806784.0000             TOTAL OUT =    23241196.0000

            IN - OUT =     -425984.0000              IN - OUT =         -26.0000

 PERCENT DISCREPANCY =          -0.00     PERCENT DISCREPANCY =          -0.00






         TIME SUMMARY AT END OF TIME STEP   12 IN STRESS PERIOD   37
                    SECONDS     MINUTES      HOURS       DAYS        YEARS
                    -----------------------------------------------------------
   TIME STEP LENGTH 2.63520E+06  43920.      732.00      30.500     8.35044E-02
 STRESS PERIOD TIME 3.16224E+07 5.27040E+05  8784.0      366.00      1.0021    
         TOTAL TIME 1.16770E+09 1.94616E+07 3.24361E+05  13515.      37.002    
1
1
                            STRESS PERIOD NO.   38, LENGTH =   365.0000    
                            -----------------------------------------------

                              NUMBER OF TIME STEPS =    12

                               MULTIPLIER FOR DELT =     1.000

                            INITIAL TIME STEP SIZE =   30.41667    

 WELL NO.  LAYER   ROW   COL   STRESS RATE         
 --------------------------------------------------
      1      2     36     46      -788.0    

      1 WELL 

 REUSING SURF FROM LAST STRESS PERIOD

 REUSING EVTR FROM LAST STRESS PERIOD

 REUSING EXDP FROM LAST STRESS PERIOD



                           RECHARGE
 READING ON UNIT   16 WITH FORMAT: (15F5.0)            


     63 TIME-VARIANT SPECIFIED-HEAD CELLS

 SOLVING FOR HEAD 
                                                   Max.-Head-Change                        Max.-Flux-Residual
  Residual-Control   Outer-Iter.   Inner-Iter.     Column Row Layer    Max.-Head-Change    Column Row Layer    Max.-Flux-Residual            L2-New               L2-Old           Solver-Max-Delh
          0                 1          11            51  103     3      -0.2230351864E+02      20   18    1       0.1153736017E+06      0.7154255305E+06      0.9269286188E+00     -0.2230351864E+02
          0                 2          10            51  103     3       0.2027477458E+01      20   18    1      -0.1184713809E+05      0.7243037562E+05      0.7154255305E+06      0.2027477458E+01
          0                 3           6            65    2     2      -0.2764590882E-01      47   28    2      -0.8228688565E+02      0.1332382604E+03      0.7243037562E+05     -0.2764590882E-01
          0                 4           4            65    2     2      -0.1579273185E-02      63   87    2       0.3174036968E+01      0.4624817413E+01      0.1332382604E+03     -0.1579273185E-02

    ------------------------------------------------
       NWT REQUIRED            4 OUTER ITERATIONS 
       AND A TOTAL OF         31 INNER ITERATIONS.
    ------------------------------------------------

 NO OUTPUT CONTROL FOR STRESS PERIOD   38   TIME STEP    1

 SOLVING FOR HEAD 
                                                   Max.-Head-Change                        Max.-Flux-Residual
  Residual-Control   Outer-Iter.   Inner-Iter.     Column Row Layer    Max.-Head-Change    Column Row Layer    Max.-Flux-Residual            L2-New               L2-Old           Solver-Max-Delh
          0                 1          11            55   97     3       0.1747155343E+01      59   57    1       0.4755844771E+05      0.4439965322E+06      0.4624817413E+01      0.1747155343E+01
          0                 2          10            55   97     3      -0.1571033676E+00      59   57    1      -0.4808034758E+04      0.4482075031E+05      0.4439965322E+06     -0.1571033676E+00
          0                 3           6            49   30     2      -0.7822928048E-02      49   30    2      -0.2524602166E+03      0.2676184274E+03      0.4482075031E+05     -0.7822928048E-02

    ------------------------------------------------
       NWT REQUIRED            3 OUTER ITERATIONS 
       AND A TOTAL OF         27 INNER ITERATIONS.
    ------------------------------------------------

 NO OUTPUT CONTROL FOR STRESS PERIOD   38   TIME STEP    2

 SOLVING FOR HEAD 
                                                   Max.-Head-Change                        Max.-Flux-Residual
  Residual-Control   Outer-Iter.   Inner-Iter.     Column Row Layer    Max.-Head-Change    Column Row Layer    Max.-Flux-Residual            L2-New               L2-Old           Solver-Max-Delh
          0                 1          11            55   97     3       0.1695608801E+01      59   57    1       0.3877367838E+05      0.3667430782E+06      0.2676184274E+03      0.1695608801E+01
          0                 2          10            55   97     3      -0.1524596494E+00      59   57    1      -0.3906198842E+04      0.3686653131E+05      0.3667430782E+06     -0.1524596494E+00
          0                 3           5            38   64     3      -0.2854708295E-02      38   64    3      -0.9416774911E+02      0.1070894468E+03      0.3686653131E+05     -0.2854708295E-02

    ------------------------------------------------
       NWT REQUIRED            3 OUTER ITERATIONS 
       AND A TOTAL OF         26 INNER ITERATIONS.
    ------------------------------------------------

 NO OUTPUT CONTROL FOR STRESS PERIOD   38   TIME STEP    3

 SOLVING FOR HEAD 
                                                   Max.-Head-Change                        Max.-Flux-Residual
  Residual-Control   Outer-Iter.   Inner-Iter.     Column Row Layer    Max.-Head-Change    Column Row Layer    Max.-Flux-Residual            L2-New               L2-Old           Solver-Max-Delh
          0                 1          11            55   97     3       0.1645689481E+01      55   97    3       0.3544177314E+05      0.3310658222E+06      0.1070894468E+03      0.1645689481E+01
          0                 2          10            55   97     3      -0.1479628321E+00      55   97    3      -0.3549083076E+04      0.3321527720E+05      0.3310658222E+06     -0.1479628321E+00
          0                 3           5            25   78     2       0.1312988248E-02      39   60    3      -0.3865774969E+02      0.4479894576E+02      0.3321527720E+05      0.1312988248E-02

    ------------------------------------------------
       NWT REQUIRED            3 OUTER ITERATIONS 
       AND A TOTAL OF         26 INNER ITERATIONS.
    ------------------------------------------------

 NO OUTPUT CONTROL FOR STRESS PERIOD   38   TIME STEP    4

 SOLVING FOR HEAD 
                                                   Max.-Head-Change                        Max.-Flux-Residual
  Residual-Control   Outer-Iter.   Inner-Iter.     Column Row Layer    Max.-Head-Change    Column Row Layer    Max.-Flux-Residual            L2-New               L2-Old           Solver-Max-Delh
          0                 1          11            55   97     3       0.1597402062E+01      55   97    3       0.3439906170E+05      0.3090959837E+06      0.4479894576E+02      0.1597402062E+01
          0                 2          10            55   97     3      -0.1436133289E+00      55   97    3      -0.3444454409E+04      0.3090521010E+05      0.3090959837E+06     -0.1436133289E+00
          0                 3           5            25   78     2       0.1305538496E-02      60   89    1       0.1111108041E+02      0.2061751330E+02      0.3090521010E+05      0.1305538496E-02

    ------------------------------------------------
       NWT REQUIRED            3 OUTER ITERATIONS 
       AND A TOTAL OF         26 INNER ITERATIONS.
    ------------------------------------------------

 NO OUTPUT CONTROL FOR STRESS PERIOD   38   TIME STEP    5

 SOLVING FOR HEAD 
                                                   Max.-Head-Change                        Max.-Flux-Residual
  Residual-Control   Outer-Iter.   Inner-Iter.     Column Row Layer    Max.-Head-Change    Column Row Layer    Max.-Flux-Residual            L2-New               L2-Old           Solver-Max-Delh
          0                 1          11            55   97     3       0.1550741150E+01      55   97    3       0.3339041474E+05      0.2934546015E+06      0.2061751330E+02      0.1550741150E+01
          0                 2          10            55   97     3      -0.1394106193E+00      55   97    3      -0.3343253149E+04      0.2949287260E+05      0.2934546015E+06     -0.1394106193E+00
          0                 3           5            21   28     2      -0.1368107898E-02      21   28    2      -0.1017649310E+03      0.1092873430E+03      0.2949287260E+05     -0.1368107898E-02

    ------------------------------------------------
       NWT REQUIRED            3 OUTER ITERATIONS 
       AND A TOTAL OF         26 INNER ITERATIONS.
    ------------------------------------------------

 NO OUTPUT CONTROL FOR STRESS PERIOD   38   TIME STEP    6

 SOLVING FOR HEAD 
                                                   Max.-Head-Change                        Max.-Flux-Residual
  Residual-Control   Outer-Iter.   Inner-Iter.     Column Row Layer    Max.-Head-Change    Column Row Layer    Max.-Flux-Residual            L2-New               L2-Old           Solver-Max-Delh
          0                 1          11            55   97     3       0.1505690892E+01      55   97    3       0.3241568260E+05      0.2814129592E+06      0.1092873430E+03      0.1505690892E+01
          0                 2          10            55   97     3      -0.1353534163E+00      55   97    3      -0.3245464194E+04      0.2815643925E+05      0.2814129592E+06     -0.1353534163E+00
          0                 3           5            82   51     1      -0.2306288281E-02      82   51    1      -0.1160126086E+03      0.1164797170E+03      0.2815643925E+05     -0.2306288281E-02

    ------------------------------------------------
       NWT REQUIRED            3 OUTER ITERATIONS 
       AND A TOTAL OF         26 INNER ITERATIONS.
    ------------------------------------------------

 NO OUTPUT CONTROL FOR STRESS PERIOD   38   TIME STEP    7

 SOLVING FOR HEAD 
                                                   Max.-Head-Change                        Max.-Flux-Residual
  Residual-Control   Outer-Iter.   Inner-Iter.     Column Row Layer    Max.-Head-Change    Column Row Layer    Max.-Flux-Residual            L2-New               L2-Old           Solver-Max-Delh
          0                 1          11            55   97     3       0.1462228948E+01      55   97    3       0.3147457599E+05      0.2717183415E+06      0.1164797170E+03      0.1462228948E+01
          0                 2          10            56  104     2       0.5753493014E+00      56  104    2       0.4561742237E+04      0.2761208681E+05      0.2717183415E+06      0.5753493014E+00
          0                 3           6            56  104     2      -0.5230477596E-01      56  104    2      -0.4561767038E+03      0.4722066332E+03      0.2761208681E+05     -0.5230477596E-01
          0                 4           2            25   78     2       0.3106607394E-03      25   78    2       0.2494550744E-01      0.1051814270E+00      0.4722066332E+03      0.3106607394E-03

    ------------------------------------------------
       NWT REQUIRED            4 OUTER ITERATIONS 
       AND A TOTAL OF         29 INNER ITERATIONS.
    ------------------------------------------------

 NO OUTPUT CONTROL FOR STRESS PERIOD   38   TIME STEP    8

 SOLVING FOR HEAD 
                                                   Max.-Head-Change                        Max.-Flux-Residual
  Residual-Control   Outer-Iter.   Inner-Iter.     Column Row Layer    Max.-Head-Change    Column Row Layer    Max.-Flux-Residual            L2-New               L2-Old           Solver-Max-Delh
          0                 1          11            55   97     3       0.1420326332E+01      55   97    3       0.3056660360E+05      0.2636653990E+06      0.1051814270E+00      0.1420326332E+01
          0                 2          10            55   97     3      -0.1276664200E+00      55   97    3      -0.3059985965E+04      0.2646115890E+05      0.2636653990E+06     -0.1276664200E+00
          0                 3           6            45   27     2      -0.1093929155E-01      45   27    2      -0.2181110441E+03      0.2290050384E+03      0.2646115890E+05     -0.1093929155E-01
          0                 4           2            25   78     2       0.3054556710E-03      25   78    2       0.2452748203E-01      0.1018631885E+00      0.2290050384E+03      0.3054556710E-03

    ------------------------------------------------
       NWT REQUIRED            4 OUTER ITERATIONS 
       AND A TOTAL OF         29 INNER ITERATIONS.
    ------------------------------------------------

 NO OUTPUT CONTROL FOR STRESS PERIOD   38   TIME STEP    9

 SOLVING FOR HEAD 
                                                   Max.-Head-Change                        Max.-Flux-Residual
  Residual-Control   Outer-Iter.   Inner-Iter.     Column Row Layer    Max.-Head-Change    Column Row Layer    Max.-Flux-Residual            L2-New               L2-Old           Solver-Max-Delh
          0                 1          11            55   97     3       0.1379949228E+01      55   97    3       0.2969121442E+05      0.2567418102E+06      0.1018631885E+00      0.1379949228E+01
          0                 2          10            55   97     3      -0.1240310025E+00      55   97    3      -0.2972191173E+04      0.2568704341E+05      0.2567418102E+06     -0.1240310025E+00
          0                 3           5            25   78     2       0.1253633709E-02      62   95    1       0.6913518196E+02      0.6985353797E+02      0.2568704341E+05      0.1253633709E-02

    ------------------------------------------------
       NWT REQUIRED            3 OUTER ITERATIONS 
       AND A TOTAL OF         26 INNER ITERATIONS.
    ------------------------------------------------

 NO OUTPUT CONTROL FOR STRESS PERIOD   38   TIME STEP   10

 SOLVING FOR HEAD 
                                                   Max.-Head-Change                        Max.-Flux-Residual
  Residual-Control   Outer-Iter.   Inner-Iter.     Column Row Layer    Max.-Head-Change    Column Row Layer    Max.-Flux-Residual            L2-New               L2-Old           Solver-Max-Delh
          0                 1          11            55   97     3       0.1341057227E+01      55   97    3       0.2884764997E+05      0.2506835657E+06      0.6985353797E+02      0.1341057227E+01
          0                 2          10            55   97     3      -0.1205296213E+00      55   97    3      -0.2887597279E+04      0.2503969356E+05      0.2506835657E+06     -0.1205296213E+00
          0                 3           5            25   78     2       0.1259299460E-02      55   97    2      -0.2990477799E+01      0.9895836993E+01      0.2503969356E+05      0.1259299460E-02

    ------------------------------------------------
       NWT REQUIRED            3 OUTER ITERATIONS 
       AND A TOTAL OF         26 INNER ITERATIONS.
    ------------------------------------------------

 NO OUTPUT CONTROL FOR STRESS PERIOD   38   TIME STEP   11

 SOLVING FOR HEAD 
                                                   Max.-Head-Change                        Max.-Flux-Residual
  Residual-Control   Outer-Iter.   Inner-Iter.     Column Row Layer    Max.-Head-Change    Column Row Layer    Max.-Flux-Residual            L2-New               L2-Old           Solver-Max-Delh
          0                 1          11            55   97     3       0.1303609954E+01      55   97    3       0.2803510419E+05      0.2452860627E+06      0.9895836993E+01      0.1303609954E+01
          0                 2          10            55   97     3      -0.1171483042E+00      59   89    1      -0.4259086189E+04      0.2537887714E+05      0.2452860627E+06     -0.1171483042E+00
          0                 3           5            58   97     2      -0.8208012040E-02      59   89    2      -0.2313616588E+03      0.3179020681E+03      0.2537887714E+05     -0.8208012040E-02

    ------------------------------------------------
       NWT REQUIRED            3 OUTER ITERATIONS 
       AND A TOTAL OF         26 INNER ITERATIONS.
    ------------------------------------------------

 OUTPUT CONTROL FOR STRESS PERIOD   38   TIME STEP   12
    SAVE BUDGET
 UBDSV1 SAVING "         STORAGE" ON UNIT  39 AT TIME STEP 12, STRESS PERIOD  38
 UBDSV2 SAVING "   CONSTANT HEAD" ON UNIT  39 AT TIME STEP 12, STRESS PERIOD  38
 UBDSV1 SAVING "FLOW RIGHT FACE " ON UNIT  39 AT TIME STEP 12, STRESS PERIOD  38
 UBDSV1 SAVING "FLOW FRONT FACE " ON UNIT  39 AT TIME STEP 12, STRESS PERIOD  38
 UBDSV1 SAVING "FLOW LOWER FACE " ON UNIT  39 AT TIME STEP 12, STRESS PERIOD  38
 UBDSV3 SAVING "              ET" ON UNIT  39 AT TIME STEP 12, STRESS PERIOD  38
 UBDSV3 SAVING "        RECHARGE" ON UNIT  39 AT TIME STEP 12, STRESS PERIOD  38
1
  VOLUMETRIC BUDGET FOR ENTIRE MODEL AT END OF TIME STEP   12, STRESS PERIOD  38
  ------------------------------------------------------------------------------

     CUMULATIVE VOLUMES      L**3       RATES FOR THIS TIME STEP      L**3/T
     ------------------                 ------------------------

           IN:                                      IN:
           ---                                      ---
             STORAGE = 31768377344.0000               STORAGE =      519120.5000
       CONSTANT HEAD = 13009303552.0000         CONSTANT HEAD =      685347.6875
               WELLS =   324179520.0000                 WELLS =           0.0000
                  ET =           0.0000                    ET =           0.0000
            RECHARGE =243659866112.0000              RECHARGE =    28458762.0000

            TOTAL IN =288761708544.0000              TOTAL IN =    29663230.0000

          OUT:                                     OUT:
          ----                                     ----
             STORAGE = 69093646336.0000               STORAGE =    10411852.0000
       CONSTANT HEAD = 87518208000.0000         CONSTANT HEAD =     7950425.0000
               WELLS =   524825152.0000                 WELLS =         788.0000
                  ET =131625549824.0000                    ET =    11300191.0000
            RECHARGE =           0.0000              RECHARGE =           0.0000

           TOTAL OUT =288762232832.0000             TOTAL OUT =    29663256.0000

            IN - OUT =     -524288.0000              IN - OUT =         -26.0000

 PERCENT DISCREPANCY =          -0.00     PERCENT DISCREPANCY =          -0.00






         TIME SUMMARY AT END OF TIME STEP   12 IN STRESS PERIOD   38
                    SECONDS     MINUTES      HOURS       DAYS        YEARS
                    -----------------------------------------------------------
   TIME STEP LENGTH 2.62800E+06  43800.      730.00      30.417     8.32763E-02
 STRESS PERIOD TIME 3.15360E+07 5.25600E+05  8760.0      365.00     0.99932    
         TOTAL TIME 1.19923E+09 1.99872E+07 3.33121E+05  13880.      38.001    
1
1
                            STRESS PERIOD NO.   39, LENGTH =   365.0000    
                            -----------------------------------------------

                              NUMBER OF TIME STEPS =    12

                               MULTIPLIER FOR DELT =     1.000

                            INITIAL TIME STEP SIZE =   30.41667    

 WELL NO.  LAYER   ROW   COL   STRESS RATE         
 --------------------------------------------------
      1      2     36     48      -3638.    

      1 WELL 

 REUSING SURF FROM LAST STRESS PERIOD

 REUSING EVTR FROM LAST STRESS PERIOD

 REUSING EXDP FROM LAST STRESS PERIOD



                           RECHARGE
 READING ON UNIT   16 WITH FORMAT: (15F5.0)            


     63 TIME-VARIANT SPECIFIED-HEAD CELLS

 SOLVING FOR HEAD 
                                                   Max.-Head-Change                        Max.-Flux-Residual
  Residual-Control   Outer-Iter.   Inner-Iter.     Column Row Layer    Max.-Head-Change    Column Row Layer    Max.-Flux-Residual            L2-New               L2-Old           Solver-Max-Delh
          0                 1          11            51  103     3      -0.2457882098E+02      81   45    1       0.1319778560E+06      0.6817732371E+06      0.3179020681E+03     -0.2457882098E+02
          0                 2          10            51  103     3       0.2234037717E+01      56   98    2      -0.4432583392E+05      0.8454978137E+05      0.6817732371E+06      0.2234037717E+01
          0                 3           6            57   98     3      -0.1016563421E+00      57   98    3      -0.1447578725E+04      0.1536912382E+04      0.8454978137E+05     -0.1016563421E+00
          0                 4           4            92   77     2      -0.1706732327E-02      59  107    1       0.6160478652E+01      0.7302638859E+01      0.1536912382E+04     -0.1706732327E-02

    ------------------------------------------------
       NWT REQUIRED            4 OUTER ITERATIONS 
       AND A TOTAL OF         31 INNER ITERATIONS.
    ------------------------------------------------

 NO OUTPUT CONTROL FOR STRESS PERIOD   39   TIME STEP    1

 SOLVING FOR HEAD 
                                                   Max.-Head-Change                        Max.-Flux-Residual
  Residual-Control   Outer-Iter.   Inner-Iter.     Column Row Layer    Max.-Head-Change    Column Row Layer    Max.-Flux-Residual            L2-New               L2-Old           Solver-Max-Delh
          0                 1          11            81   45     1       0.4502491197E+01      81   45    1       0.1268020935E+06      0.5238083557E+06      0.7302638859E+01      0.4502491197E+01
          0                 2          10            81   45     1      -0.4102526293E+00      81   45    1      -0.1271609873E+05      0.5251279617E+05      0.5238083557E+06     -0.4102526293E+00
          0                 3           5            56   97     2      -0.1469013755E-02      53   48    2      -0.2243805031E+02      0.3847917172E+02      0.5251279617E+05     -0.1469013755E-02

    ------------------------------------------------
       NWT REQUIRED            3 OUTER ITERATIONS 
       AND A TOTAL OF         26 INNER ITERATIONS.
    ------------------------------------------------

 NO OUTPUT CONTROL FOR STRESS PERIOD   39   TIME STEP    2

 SOLVING FOR HEAD 
                                                   Max.-Head-Change                        Max.-Flux-Residual
  Residual-Control   Outer-Iter.   Inner-Iter.     Column Row Layer    Max.-Head-Change    Column Row Layer    Max.-Flux-Residual            L2-New               L2-Old           Solver-Max-Delh
          0                 1          11            81   45     1       0.4331780716E+01      81   46    1       0.1225893803E+06      0.4720873611E+06      0.3847917172E+02      0.4331780716E+01
          0                 2          10            81   45     1      -0.3945775304E+00      81   46    1      -0.1228773903E+05      0.4821449469E+05      0.4720873611E+06     -0.3945775304E+00
          0                 3           5            56   97     2      -0.1393785293E-02      55   97    2      -0.5568945771E+01      0.1450412573E+02      0.4821449469E+05     -0.1393785293E-02

    ------------------------------------------------
       NWT REQUIRED            3 OUTER ITERATIONS 
       AND A TOTAL OF         26 INNER ITERATIONS.
    ------------------------------------------------

 NO OUTPUT CONTROL FOR STRESS PERIOD   39   TIME STEP    3

 SOLVING FOR HEAD 
                                                   Max.-Head-Change                        Max.-Flux-Residual
  Residual-Control   Outer-Iter.   Inner-Iter.     Column Row Layer    Max.-Head-Change    Column Row Layer    Max.-Flux-Residual            L2-New               L2-Old           Solver-Max-Delh
          0                 1          11            81   45     1       0.4168042636E+01      81   46    1       0.1187777295E+06      0.4425155120E+06      0.1450412573E+02      0.4168042636E+01
          0                 2          10            81   45     1      -0.3797435542E+00      81   46    1      -0.1190440935E+05      0.4426692128E+05      0.4425155120E+06     -0.3797435542E+00
          0                 3           5            80   47     1       0.4825285166E-02      80   47    1       0.2129180350E+03      0.2133475374E+03      0.4426692128E+05      0.4825285166E-02

    ------------------------------------------------
       NWT REQUIRED            3 OUTER ITERATIONS 
       AND A TOTAL OF         26 INNER ITERATIONS.
    ------------------------------------------------

 NO OUTPUT CONTROL FOR STRESS PERIOD   39   TIME STEP    4

 SOLVING FOR HEAD 
                                                   Max.-Head-Change                        Max.-Flux-Residual
  Residual-Control   Outer-Iter.   Inner-Iter.     Column Row Layer    Max.-Head-Change    Column Row Layer    Max.-Flux-Residual            L2-New               L2-Old           Solver-Max-Delh
          0                 1          11            81   45     1       0.4010675719E+01      81   46    1       0.1150746245E+06      0.4218326827E+06      0.2133475374E+03      0.4010675719E+01
          0                 2          10            56   97     2      -0.1256390996E+01      56   97    2      -0.3743644660E+05      0.5620707184E+05      0.4218326827E+06     -0.1256390996E+01
          0                 3           5            56   96     2       0.2313691892E-02      31   64    3      -0.8058949830E+02      0.9949677218E+02      0.5620707184E+05      0.2313691892E-02

    ------------------------------------------------
       NWT REQUIRED            3 OUTER ITERATIONS 
       AND A TOTAL OF         26 INNER ITERATIONS.
    ------------------------------------------------

 NO OUTPUT CONTROL FOR STRESS PERIOD   39   TIME STEP    5

 SOLVING FOR HEAD 
                                                   Max.-Head-Change                        Max.-Flux-Residual
  Residual-Control   Outer-Iter.   Inner-Iter.     Column Row Layer    Max.-Head-Change    Column Row Layer    Max.-Flux-Residual            L2-New               L2-Old           Solver-Max-Delh
          0                 1          11            81   45     1       0.3859968179E+01      81   46    1       0.1114824299E+06      0.4060054418E+06      0.9949677218E+02      0.3859968179E+01
          0                 2          10            81   45     1      -0.3515545301E+00      81   46    1      -0.1117124542E+05      0.4084210886E+05      0.4060054418E+06     -0.3515545301E+00
          0                 3           5            25   78     2       0.1202903739E-02      55   97    2      -0.5012168378E+01      0.1227924927E+02      0.4084210886E+05      0.1202903739E-02

    ------------------------------------------------
       NWT REQUIRED            3 OUTER ITERATIONS 
       AND A TOTAL OF         26 INNER ITERATIONS.
    ------------------------------------------------

 NO OUTPUT CONTROL FOR STRESS PERIOD   39   TIME STEP    6

 INTERPOLATION FOR HEAD OBS# 7653, ID 191-39-212   CHANGED BECAUSE AT LEAST ONE
 NEIGHBORING CELL REQUIRED FOR INTERPOLATION IS DRY OR INACTIVE (OBS2BAS7SE)

 SOLVING FOR HEAD 
                                                   Max.-Head-Change                        Max.-Flux-Residual
  Residual-Control   Outer-Iter.   Inner-Iter.     Column Row Layer    Max.-Head-Change    Column Row Layer    Max.-Flux-Residual            L2-New               L2-Old           Solver-Max-Delh
          0                 1          11            81   45     1       0.3715469754E+01      81   46    1       0.1080000058E+06      0.3933154270E+06      0.1227924927E+02      0.3715469754E+01
          0                 2          10            81   45     1      -0.3383613907E+00      81   46    1      -0.1082136902E+05      0.3935039050E+05      0.3933154270E+06     -0.3383613907E+00
          0                 3           5            25   78     2       0.1195394357E-02      55   97    2      -0.4825819442E+01      0.1257506565E+02      0.3935039050E+05      0.1195394357E-02

    ------------------------------------------------
       NWT REQUIRED            3 OUTER ITERATIONS 
       AND A TOTAL OF         26 INNER ITERATIONS.
    ------------------------------------------------

 NO OUTPUT CONTROL FOR STRESS PERIOD   39   TIME STEP    7

 SOLVING FOR HEAD 
                                                   Max.-Head-Change                        Max.-Flux-Residual
  Residual-Control   Outer-Iter.   Inner-Iter.     Column Row Layer    Max.-Head-Change    Column Row Layer    Max.-Flux-Residual            L2-New               L2-Old           Solver-Max-Delh
          0                 1          11            81   45     1       0.3577062257E+01      81   46    1       0.1046257567E+06      0.3827262152E+06      0.1257506565E+02      0.3577062257E+01
          0                 2          10            81   45     1      -0.3257269015E+00      81   46    1      -0.1048242238E+05      0.3831862447E+05      0.3827262152E+06     -0.3257269015E+00
          0                 3           5            15    3     1       0.2557926780E-02      15    3    1       0.7588149060E+02      0.8314187618E+02      0.3831862447E+05      0.2557926780E-02

    ------------------------------------------------
       NWT REQUIRED            3 OUTER ITERATIONS 
       AND A TOTAL OF         26 INNER ITERATIONS.
    ------------------------------------------------

 NO OUTPUT CONTROL FOR STRESS PERIOD   39   TIME STEP    8

 SOLVING FOR HEAD 
                                                   Max.-Head-Change                        Max.-Flux-Residual
  Residual-Control   Outer-Iter.   Inner-Iter.     Column Row Layer    Max.-Head-Change    Column Row Layer    Max.-Flux-Residual            L2-New               L2-Old           Solver-Max-Delh
          0                 1          11            81   45     1       0.3444553620E+01      81   46    1       0.1013580357E+06      0.3736234671E+06      0.8314187618E+02      0.3444553620E+01
          0                 2          10            81   45     1      -0.3136332808E+00      81   46    1      -0.1015423365E+05      0.3738522249E+05      0.3736234671E+06     -0.3136332808E+00
          0                 3           5            21    2     1       0.4693649800E-02      21    2    1       0.5042546019E+02      0.5568671402E+02      0.3738522249E+05      0.4693649800E-02

    ------------------------------------------------
       NWT REQUIRED            3 OUTER ITERATIONS 
       AND A TOTAL OF         26 INNER ITERATIONS.
    ------------------------------------------------

 NO OUTPUT CONTROL FOR STRESS PERIOD   39   TIME STEP    9

 SOLVING FOR HEAD 
                                                   Max.-Head-Change                        Max.-Flux-Residual
  Residual-Control   Outer-Iter.   Inner-Iter.     Column Row Layer    Max.-Head-Change    Column Row Layer    Max.-Flux-Residual            L2-New               L2-Old           Solver-Max-Delh
          0                 1          11            81   45     1       0.3317749900E+01      81   46    1       0.9819509841E+05      0.3656138105E+06      0.5568671402E+02      0.3317749900E+01
          0                 2          10            55   97     2      -0.1405010432E+01      55   97    2      -0.4275408684E+05      0.5627046064E+05      0.3656138105E+06     -0.1405010432E+01
          0                 3           6            90   66     2       0.1308828672E-01      90   66    2       0.6508410140E+03      0.6655666992E+03      0.5627046064E+05      0.1308828672E-01
          0                 4           2            90   66     2       0.1131542799E-02      90   66    2       0.5648881544E+02      0.5653523378E+02      0.6655666992E+03      0.1131542799E-02

    ------------------------------------------------
       NWT REQUIRED            4 OUTER ITERATIONS 
       AND A TOTAL OF         29 INNER ITERATIONS.
    ------------------------------------------------

 NO OUTPUT CONTROL FOR STRESS PERIOD   39   TIME STEP   10

 SOLVING FOR HEAD 
                                                   Max.-Head-Change                        Max.-Flux-Residual
  Residual-Control   Outer-Iter.   Inner-Iter.     Column Row Layer    Max.-Head-Change    Column Row Layer    Max.-Flux-Residual            L2-New               L2-Old           Solver-Max-Delh
          0                 1          11            81   45     1       0.3197386652E+01      81   46    1       0.9513836400E+05      0.3579872297E+06      0.5653523378E+02      0.3197386652E+01
          0                 2          10            55   98     2      -0.8597841637E+00      55   98    2      -0.2599476613E+05      0.4476417092E+05      0.3579872297E+06     -0.8597841637E+00
          0                 3           5            71   19     2       0.4087147037E-01      90   66    2      -0.1865266681E+03      0.2169320841E+03      0.4476417092E+05      0.4087147037E-01
          0                 4           2            71   19     2       0.4537190296E-03      71   19    2       0.1134232344E+01      0.1370197313E+01      0.2169320841E+03      0.4537190296E-03

    ------------------------------------------------
       NWT REQUIRED            4 OUTER ITERATIONS 
       AND A TOTAL OF         28 INNER ITERATIONS.
    ------------------------------------------------

 NO OUTPUT CONTROL FOR STRESS PERIOD   39   TIME STEP   11

 SOLVING FOR HEAD 
                                                   Max.-Head-Change                        Max.-Flux-Residual
  Residual-Control   Outer-Iter.   Inner-Iter.     Column Row Layer    Max.-Head-Change    Column Row Layer    Max.-Flux-Residual            L2-New               L2-Old           Solver-Max-Delh
          0                 1          11            81   45     1       0.3081637049E+01      81   46    1       0.9221510088E+05      0.3509606804E+06      0.1370197313E+01      0.3081637049E+01
          0                 2          10            81   45     1      -0.2805613505E+00      81   46    1      -0.9236259498E+04      0.3527415152E+05      0.3509606804E+06     -0.2805613505E+00
          0                 3           5            25   78     2       0.1151384794E-02      55   96    2      -0.2928996252E+01      0.9909638114E+01      0.3527415152E+05      0.1151384794E-02

    ------------------------------------------------
       NWT REQUIRED            3 OUTER ITERATIONS 
       AND A TOTAL OF         26 INNER ITERATIONS.
    ------------------------------------------------

 OUTPUT CONTROL FOR STRESS PERIOD   39   TIME STEP   12
    SAVE BUDGET
 UBDSV1 SAVING "         STORAGE" ON UNIT  39 AT TIME STEP 12, STRESS PERIOD  39
 UBDSV2 SAVING "   CONSTANT HEAD" ON UNIT  39 AT TIME STEP 12, STRESS PERIOD  39
 UBDSV1 SAVING "FLOW RIGHT FACE " ON UNIT  39 AT TIME STEP 12, STRESS PERIOD  39
 UBDSV1 SAVING "FLOW FRONT FACE " ON UNIT  39 AT TIME STEP 12, STRESS PERIOD  39
 UBDSV1 SAVING "FLOW LOWER FACE " ON UNIT  39 AT TIME STEP 12, STRESS PERIOD  39
 UBDSV3 SAVING "              ET" ON UNIT  39 AT TIME STEP 12, STRESS PERIOD  39
 UBDSV3 SAVING "        RECHARGE" ON UNIT  39 AT TIME STEP 12, STRESS PERIOD  39
1
  VOLUMETRIC BUDGET FOR ENTIRE MODEL AT END OF TIME STEP   12, STRESS PERIOD  39
  ------------------------------------------------------------------------------

     CUMULATIVE VOLUMES      L**3       RATES FOR THIS TIME STEP      L**3/T
     ------------------                 ------------------------

           IN:                                      IN:
           ---                                      ---
             STORAGE = 31957479424.0000               STORAGE =      375482.9688
       CONSTANT HEAD = 13247127552.0000         CONSTANT HEAD =      625504.2500
               WELLS =   324179520.0000                 WELLS =           0.0000
                  ET =           0.0000                    ET =           0.0000
            RECHARGE =256320438272.0000              RECHARGE =    34686304.0000

            TOTAL IN =301849214976.0000              TOTAL IN =    35687292.0000

          OUT:                                     OUT:
          ----                                     ----
             STORAGE = 74658873344.0000               STORAGE =    14348429.0000
       CONSTANT HEAD = 90479902720.0000         CONSTANT HEAD =     8215191.5000
               WELLS =   526153024.0000                 WELLS =        3638.0000
                  ET =136184733696.0000                    ET =    13120060.0000
            RECHARGE =           0.0000              RECHARGE =           0.0000

           TOTAL OUT =301849673728.0000             TOTAL OUT =    35687320.0000

            IN - OUT =     -458752.0000              IN - OUT =         -28.0000

 PERCENT DISCREPANCY =          -0.00     PERCENT DISCREPANCY =          -0.00






         TIME SUMMARY AT END OF TIME STEP   12 IN STRESS PERIOD   39
                    SECONDS     MINUTES      HOURS       DAYS        YEARS
                    -----------------------------------------------------------
   TIME STEP LENGTH 2.62800E+06  43800.      730.00      30.417     8.32763E-02
 STRESS PERIOD TIME 3.15360E+07 5.25600E+05  8760.0      365.00     0.99932    
         TOTAL TIME 1.23077E+09 2.05129E+07 3.41881E+05  14245.      39.001    
1
1
                            STRESS PERIOD NO.   40, LENGTH =   365.0000    
                            -----------------------------------------------

                              NUMBER OF TIME STEPS =    12

                               MULTIPLIER FOR DELT =     1.000

                            INITIAL TIME STEP SIZE =   30.41667    

 WELL NO.  LAYER   ROW   COL   STRESS RATE         
 --------------------------------------------------
      1      2     36     49     -0.1086E+05

      1 WELL 

 REUSING SURF FROM LAST STRESS PERIOD

 REUSING EVTR FROM LAST STRESS PERIOD

 REUSING EXDP FROM LAST STRESS PERIOD



                           RECHARGE
 READING ON UNIT   16 WITH FORMAT: (15F5.0)            


     63 TIME-VARIANT SPECIFIED-HEAD CELLS

 SOLVING FOR HEAD 
                                                   Max.-Head-Change                        Max.-Flux-Residual
  Residual-Control   Outer-Iter.   Inner-Iter.     Column Row Layer    Max.-Head-Change    Column Row Layer    Max.-Flux-Residual            L2-New               L2-Old           Solver-Max-Delh
          0                 1          11            92   77     2      -0.2776005044E+02      32   21    1       0.2009922601E+06      0.6409104761E+06      0.9909638114E+01     -0.2776005044E+02
          0                 2          10            51  103     3       0.4355674933E+01      51  103    3       0.1063886992E+06      0.1796373604E+06      0.6409104761E+06      0.4355674933E+01
          0                 3           6            66    7     2       0.1375899462E+00      55  109    2      -0.5983736822E+03      0.7605446092E+03      0.1796373604E+06      0.1375899462E+00
          0                 4           3            66    7     2       0.2028407891E-01      66    7    2       0.8930058706E+01      0.1750823445E+02      0.7605446092E+03      0.2028407891E-01
          0                 5           2            66    7     2       0.2986014247E-02      66    7    2       0.1314474145E+01      0.2119068729E+01      0.1750823445E+02      0.2986014247E-02

    ------------------------------------------------
       NWT REQUIRED            5 OUTER ITERATIONS 
       AND A TOTAL OF         32 INNER ITERATIONS.
    ------------------------------------------------

 NO OUTPUT CONTROL FOR STRESS PERIOD   40   TIME STEP    1

 SOLVING FOR HEAD 
                                                   Max.-Head-Change                        Max.-Flux-Residual
  Residual-Control   Outer-Iter.   Inner-Iter.     Column Row Layer    Max.-Head-Change    Column Row Layer    Max.-Flux-Residual            L2-New               L2-Old           Solver-Max-Delh
          0                 1          11            34   59     2       0.1920325292E+01      32   21    1       0.9944264795E+05      0.3924721793E+06      0.2119068729E+01      0.1920325292E+01
          0                 2          10            34   59     2      -0.1764075509E+00      32   21    1      -0.1015630376E+05      0.3934316402E+05      0.3924721793E+06     -0.1764075509E+00
          0                 3           5            25   78     2       0.1139375868E-02      92   76    3       0.7332953808E+01      0.1766615915E+02      0.3934316402E+05      0.1139375868E-02

    ------------------------------------------------
       NWT REQUIRED            3 OUTER ITERATIONS 
       AND A TOTAL OF         26 INNER ITERATIONS.
    ------------------------------------------------

 NO OUTPUT CONTROL FOR STRESS PERIOD   40   TIME STEP    2

 SOLVING FOR HEAD 
                                                   Max.-Head-Change                        Max.-Flux-Residual
  Residual-Control   Outer-Iter.   Inner-Iter.     Column Row Layer    Max.-Head-Change    Column Row Layer    Max.-Flux-Residual            L2-New               L2-Old           Solver-Max-Delh
          0                 1          11            55   96     2       0.1521909154E+01      32   21    1       0.5374977352E+05      0.3159940074E+06      0.1766615915E+02      0.1521909154E+01
          0                 2          10            55   96     2      -0.1302356572E+00      32   21    1      -0.5437630965E+04      0.3168075339E+05      0.3159940074E+06     -0.1302356572E+00
          0                 3           5            25   78     2       0.1150643370E-02      34   59    1      -0.3585582636E+01      0.1327181053E+02      0.3168075339E+05      0.1150643370E-02

    ------------------------------------------------
       NWT REQUIRED            3 OUTER ITERATIONS 
       AND A TOTAL OF         26 INNER ITERATIONS.
    ------------------------------------------------

 NO OUTPUT CONTROL FOR STRESS PERIOD   40   TIME STEP    3

 SOLVING FOR HEAD 
                                                   Max.-Head-Change                        Max.-Flux-Residual
  Residual-Control   Outer-Iter.   Inner-Iter.     Column Row Layer    Max.-Head-Change    Column Row Layer    Max.-Flux-Residual            L2-New               L2-Old           Solver-Max-Delh
          0                 1          11            55   96     2       0.1532546484E+01      57   98    2       0.3702824173E+05      0.2801272429E+06      0.1327181053E+02      0.1532546484E+01
          0                 2          10            55   96     2      -0.1312555696E+00      57   98    2      -0.3720559451E+04      0.2803903908E+05      0.2801272429E+06     -0.1312555696E+00
          0                 3           5            25   78     2       0.1147406372E-02      84   50    1       0.1863400361E+02      0.3250138361E+02      0.2803903908E+05      0.1147406372E-02

    ------------------------------------------------
       NWT REQUIRED            3 OUTER ITERATIONS 
       AND A TOTAL OF         26 INNER ITERATIONS.
    ------------------------------------------------

 NO OUTPUT CONTROL FOR STRESS PERIOD   40   TIME STEP    4

 SOLVING FOR HEAD 
                                                   Max.-Head-Change                        Max.-Flux-Residual
  Residual-Control   Outer-Iter.   Inner-Iter.     Column Row Layer    Max.-Head-Change    Column Row Layer    Max.-Flux-Residual            L2-New               L2-Old           Solver-Max-Delh
          0                 1          11            55   96     2       0.1539841844E+01      57   98    2       0.3468475886E+05      0.2592622530E+06      0.3250138361E+02      0.1539841844E+01
          0                 2          10            55   96     2      -0.1319626870E+00      57   98    2      -0.3483465127E+04      0.2591470247E+05      0.2592622530E+06     -0.1319626870E+00
          0                 3           5            25   78     2       0.1144132100E-02      19   40    2      -0.4844865315E+01      0.1361923554E+02      0.2591470247E+05      0.1144132100E-02

    ------------------------------------------------
       NWT REQUIRED            3 OUTER ITERATIONS 
       AND A TOTAL OF         26 INNER ITERATIONS.
    ------------------------------------------------

 NO OUTPUT CONTROL FOR STRESS PERIOD   40   TIME STEP    5

 SOLVING FOR HEAD 
                                                   Max.-Head-Change                        Max.-Flux-Residual
  Residual-Control   Outer-Iter.   Inner-Iter.     Column Row Layer    Max.-Head-Change    Column Row Layer    Max.-Flux-Residual            L2-New               L2-Old           Solver-Max-Delh
          0                 1          11            55   96     2       0.1543915397E+01      57   98    2       0.3256591003E+05      0.2456341673E+06      0.1361923554E+02      0.1543915397E+01
          0                 2          10            37   34     2       0.2097035989E+01      37   34    2       0.4366733024E+04      0.2526344324E+05      0.2456341673E+06      0.2097035989E+01
          0                 3           6            37   34     2      -0.1906397224E+00      37   34    2      -0.4366733070E+03      0.4842440062E+03      0.2526344324E+05     -0.1906397224E+00
          0                 4           5            25   78     2       0.2763910428E-03      21   26    2       0.1726031490E+02      0.1726153319E+02      0.4842440062E+03      0.2763910428E-03

    ------------------------------------------------
       NWT REQUIRED            4 OUTER ITERATIONS 
       AND A TOTAL OF         32 INNER ITERATIONS.
    ------------------------------------------------

 NO OUTPUT CONTROL FOR STRESS PERIOD   40   TIME STEP    6

 SOLVING FOR HEAD 
                                                   Max.-Head-Change                        Max.-Flux-Residual
  Residual-Control   Outer-Iter.   Inner-Iter.     Column Row Layer    Max.-Head-Change    Column Row Layer    Max.-Flux-Residual            L2-New               L2-Old           Solver-Max-Delh
          0                 1          11            55   96     2       0.1544950545E+01      57   98    2       0.3064803787E+05      0.2360265739E+06      0.1726153319E+02      0.1544950545E+01
          0                 2          10            55   96     2      -0.1325102587E+00      21   26    2       0.3321010319E+04      0.2382856148E+05      0.2360265739E+06     -0.1325102587E+00
          0                 3           6            21   26     2      -0.5442667861E-02      21   26    2      -0.3272327144E+03      0.3438624847E+03      0.2382856148E+05     -0.5442667861E-02

    ------------------------------------------------
       NWT REQUIRED            3 OUTER ITERATIONS 
       AND A TOTAL OF         27 INNER ITERATIONS.
    ------------------------------------------------

 NO OUTPUT CONTROL FOR STRESS PERIOD   40   TIME STEP    7

 SOLVING FOR HEAD 
                                                   Max.-Head-Change                        Max.-Flux-Residual
  Residual-Control   Outer-Iter.   Inner-Iter.     Column Row Layer    Max.-Head-Change    Column Row Layer    Max.-Flux-Residual            L2-New               L2-Old           Solver-Max-Delh
          0                 1          11            55   96     2       0.1543147985E+01      55   96    3       0.2893989899E+05      0.2288746814E+06      0.3438624847E+03      0.1543147985E+01
          0                 2          10            55   96     2      -0.1323915674E+00      57   98    2      -0.2900137780E+04      0.2291764153E+05      0.2288746814E+06     -0.1323915674E+00
          0                 3           5            25   78     2       0.1136216739E-02      55   96    2      -0.3480486128E+01      0.1102895361E+02      0.2291764153E+05      0.1136216739E-02

    ------------------------------------------------
       NWT REQUIRED            3 OUTER ITERATIONS 
       AND A TOTAL OF         26 INNER ITERATIONS.
    ------------------------------------------------

 NO OUTPUT CONTROL FOR STRESS PERIOD   40   TIME STEP    8

 SOLVING FOR HEAD 
                                                   Max.-Head-Change                        Max.-Flux-Residual
  Residual-Control   Outer-Iter.   Inner-Iter.     Column Row Layer    Max.-Head-Change    Column Row Layer    Max.-Flux-Residual            L2-New               L2-Old           Solver-Max-Delh
          0                 1          11            55   96     2       0.1538749751E+01      55   96    3       0.2906912995E+05      0.2232596112E+06      0.1102895361E+02      0.1538749751E+01
          0                 2          10            42   24     2       0.9430067029E+00      42   24    2       0.3074426777E+04      0.2288152383E+05      0.2232596112E+06      0.9430067029E+00
          0                 3           6            42   24     2      -0.8573405553E-01      42   24    2      -0.3074706252E+03      0.3182727185E+03      0.2288152383E+05     -0.8573405553E-01
          0                 4           2            25   78     2       0.2746528481E-03      25   78    2       0.2205332615E-01      0.1110161188E+00      0.3182727185E+03      0.2746528481E-03

    ------------------------------------------------
       NWT REQUIRED            4 OUTER ITERATIONS 
       AND A TOTAL OF         29 INNER ITERATIONS.
    ------------------------------------------------

 NO OUTPUT CONTROL FOR STRESS PERIOD   40   TIME STEP    9

 SOLVING FOR HEAD 
                                                   Max.-Head-Change                        Max.-Flux-Residual
  Residual-Control   Outer-Iter.   Inner-Iter.     Column Row Layer    Max.-Head-Change    Column Row Layer    Max.-Flux-Residual            L2-New               L2-Old           Solver-Max-Delh
          0                 1          11            55   96     2       0.1531989763E+01      55   96    3       0.2913226800E+05      0.2186303300E+06      0.1110161188E+00      0.1531989763E+01
          0                 2          10            55   96     2      -0.1314811025E+00      36   66    2      -0.3279871670E+04      0.2225243918E+05      0.2186303300E+06     -0.1314811025E+00
          0                 3           5            25   78     2       0.1120153315E-02      55   96    2      -0.3460305793E+01      0.1138334978E+02      0.2225243918E+05      0.1120153315E-02

    ------------------------------------------------
       NWT REQUIRED            3 OUTER ITERATIONS 
       AND A TOTAL OF         26 INNER ITERATIONS.
    ------------------------------------------------

 NO OUTPUT CONTROL FOR STRESS PERIOD   40   TIME STEP   10

 SOLVING FOR HEAD 
                                                   Max.-Head-Change                        Max.-Flux-Residual
  Residual-Control   Outer-Iter.   Inner-Iter.     Column Row Layer    Max.-Head-Change    Column Row Layer    Max.-Flux-Residual            L2-New               L2-Old           Solver-Max-Delh
          0                 1          11            55   96     2       0.1523088177E+01      55   96    3       0.2913578192E+05      0.2147969406E+06      0.1138334978E+02      0.1523088177E+01
          0                 2          10            55   96     2      -0.1307314851E+00      55   96    3      -0.2917906975E+04      0.2148270677E+05      0.2147969406E+06     -0.1307314851E+00
          0                 3           5            25   78     2       0.1130417676E-02      55   96    2      -0.3442034747E+01      0.1058008714E+02      0.2148270677E+05      0.1130417676E-02

    ------------------------------------------------
       NWT REQUIRED            3 OUTER ITERATIONS 
       AND A TOTAL OF         26 INNER ITERATIONS.
    ------------------------------------------------

 NO OUTPUT CONTROL FOR STRESS PERIOD   40   TIME STEP   11

 SOLVING FOR HEAD 
                                                   Max.-Head-Change                        Max.-Flux-Residual
  Residual-Control   Outer-Iter.   Inner-Iter.     Column Row Layer    Max.-Head-Change    Column Row Layer    Max.-Flux-Residual            L2-New               L2-Old           Solver-Max-Delh
          0                 1          11            55   96     2       0.1512281201E+01      55   96    3       0.2908561307E+05      0.2114406703E+06      0.1058008714E+02      0.1512281201E+01
          0                 2          10            55   96     2      -0.1298137532E+00      55   96    3      -0.2912854835E+04      0.2114880967E+05      0.2114406703E+06     -0.1298137532E+00
          0                 3           5            22    3     1       0.2393659876E-02      22    3    1       0.3268186808E+02      0.3603216431E+02      0.2114880967E+05      0.2393659876E-02

    ------------------------------------------------
       NWT REQUIRED            3 OUTER ITERATIONS 
       AND A TOTAL OF         26 INNER ITERATIONS.
    ------------------------------------------------

 OUTPUT CONTROL FOR STRESS PERIOD   40   TIME STEP   12
    SAVE BUDGET
 UBDSV1 SAVING "         STORAGE" ON UNIT  39 AT TIME STEP 12, STRESS PERIOD  40
 UBDSV2 SAVING "   CONSTANT HEAD" ON UNIT  39 AT TIME STEP 12, STRESS PERIOD  40
 UBDSV1 SAVING "FLOW RIGHT FACE " ON UNIT  39 AT TIME STEP 12, STRESS PERIOD  40
 UBDSV1 SAVING "FLOW FRONT FACE " ON UNIT  39 AT TIME STEP 12, STRESS PERIOD  40
 UBDSV1 SAVING "FLOW LOWER FACE " ON UNIT  39 AT TIME STEP 12, STRESS PERIOD  40
 UBDSV3 SAVING "              ET" ON UNIT  39 AT TIME STEP 12, STRESS PERIOD  40
 UBDSV3 SAVING "        RECHARGE" ON UNIT  39 AT TIME STEP 12, STRESS PERIOD  40
1
  VOLUMETRIC BUDGET FOR ENTIRE MODEL AT END OF TIME STEP   12, STRESS PERIOD  40
  ------------------------------------------------------------------------------

     CUMULATIVE VOLUMES      L**3       RATES FOR THIS TIME STEP      L**3/T
     ------------------                 ------------------------

           IN:                                      IN:
           ---                                      ---
             STORAGE = 32466186240.0000               STORAGE =      619039.6250
       CONSTANT HEAD = 13506896896.0000         CONSTANT HEAD =      765132.3125
               WELLS =   324179520.0000                 WELLS =           0.0000
                  ET =           0.0000                    ET =           0.0000
            RECHARGE =266479370240.0000              RECHARGE =    27832940.0000

            TOTAL IN =312776622080.0000              TOTAL IN =    29217112.0000

          OUT:                                     OUT:
          ----                                     ----
             STORAGE = 78071644160.0000               STORAGE =     8841714.0000
       CONSTANT HEAD = 93395214336.0000         CONSTANT HEAD =     7900403.0000
               WELLS =   530117056.0000                 WELLS =       10860.0000
                  ET =140780191744.0000                    ET =    12464161.0000
            RECHARGE =           0.0000              RECHARGE =           0.0000

           TOTAL OUT =312777179136.0000             TOTAL OUT =    29217138.0000

            IN - OUT =     -557056.0000              IN - OUT =         -26.0000

 PERCENT DISCREPANCY =          -0.00     PERCENT DISCREPANCY =          -0.00






         TIME SUMMARY AT END OF TIME STEP   12 IN STRESS PERIOD   40
                    SECONDS     MINUTES      HOURS       DAYS        YEARS
                    -----------------------------------------------------------
   TIME STEP LENGTH 2.62800E+06  43800.      730.00      30.417     8.32763E-02
 STRESS PERIOD TIME 3.15360E+07 5.25600E+05  8760.0      365.00     0.99932    
         TOTAL TIME 1.26231E+09 2.10385E+07 3.50641E+05  14610.      40.000    
1
1
                            STRESS PERIOD NO.   41, LENGTH =   366.0000    
                            -----------------------------------------------

                              NUMBER OF TIME STEPS =    12

                               MULTIPLIER FOR DELT =     1.000

                            INITIAL TIME STEP SIZE =   30.50000    

 WELL NO.  LAYER   ROW   COL   STRESS RATE         
 --------------------------------------------------
      1      1     38     49     -0.5182E+05

      1 WELL 

 REUSING SURF FROM LAST STRESS PERIOD

 REUSING EVTR FROM LAST STRESS PERIOD

 REUSING EXDP FROM LAST STRESS PERIOD



                           RECHARGE
 READING ON UNIT   16 WITH FORMAT: (15F5.0)            


     63 TIME-VARIANT SPECIFIED-HEAD CELLS

 SOLVING FOR HEAD 
                                                   Max.-Head-Change                        Max.-Flux-Residual
  Residual-Control   Outer-Iter.   Inner-Iter.     Column Row Layer    Max.-Head-Change    Column Row Layer    Max.-Flux-Residual            L2-New               L2-Old           Solver-Max-Delh
          0                 1          11            65    2     2       0.3884246767E+02      32   21    1      -0.1846549649E+06      0.7840558106E+06      0.3603216431E+02      0.3884246767E+02
          0                 2          10            72   15     1      -0.5423949210E+01      72   15    1      -0.1818024473E+06      0.2424043456E+06      0.7840558106E+06     -0.5423949210E+01
          0                 3           5            65    2     2      -0.7613111727E-01      72   15    1      -0.2725290926E+03      0.3773523168E+03      0.2424043456E+06     -0.7613111727E-01
          0                 4           3            67    4     2       0.5281119500E-02      72   14    1       0.1350365920E+02      0.1918103232E+02      0.3773523168E+03      0.5281119500E-02

    ------------------------------------------------
       NWT REQUIRED            4 OUTER ITERATIONS 
       AND A TOTAL OF         29 INNER ITERATIONS.
    ------------------------------------------------

 NO OUTPUT CONTROL FOR STRESS PERIOD   41   TIME STEP    1

 SOLVING FOR HEAD 
                                                   Max.-Head-Change                        Max.-Flux-Residual
  Residual-Control   Outer-Iter.   Inner-Iter.     Column Row Layer    Max.-Head-Change    Column Row Layer    Max.-Flux-Residual            L2-New               L2-Old           Solver-Max-Delh
          0                 1          11            71   16     1       0.1969749985E+01      32   21    1      -0.8181361702E+05      0.4709479468E+06      0.1918103232E+02      0.1969749985E+01
          0                 2          10            71   16     1      -0.1797491592E+00      32   21    1       0.8054388214E+04      0.4691300708E+05      0.4709479468E+06     -0.1797491592E+00
          0                 3           5            25   78     2       0.1112797024E-02      27   51    2      -0.3289280774E+02      0.3965181454E+02      0.4691300708E+05      0.1112797024E-02

    ------------------------------------------------
       NWT REQUIRED            3 OUTER ITERATIONS 
       AND A TOTAL OF         26 INNER ITERATIONS.
    ------------------------------------------------

 NO OUTPUT CONTROL FOR STRESS PERIOD   41   TIME STEP    2

 SOLVING FOR HEAD 
                                                   Max.-Head-Change                        Max.-Flux-Residual
  Residual-Control   Outer-Iter.   Inner-Iter.     Column Row Layer    Max.-Head-Change    Column Row Layer    Max.-Flux-Residual            L2-New               L2-Old           Solver-Max-Delh
          0                 1          11            71   16     1       0.1862940474E+01      71   16    1       0.4909344952E+05      0.3725889186E+06      0.3965181454E+02      0.1862940474E+01
          0                 2          10            66   19     1      -0.2112702062E+00      66   19    1      -0.8769790182E+04      0.3832778302E+05      0.3725889186E+06     -0.2112702062E+00
          0                 3           5            56   78     2      -0.3211834805E-02      56   78    2      -0.5281245993E+02      0.5633360028E+02      0.3832778302E+05     -0.3211834805E-02

    ------------------------------------------------
       NWT REQUIRED            3 OUTER ITERATIONS 
       AND A TOTAL OF         26 INNER ITERATIONS.
    ------------------------------------------------

 NO OUTPUT CONTROL FOR STRESS PERIOD   41   TIME STEP    3

 SOLVING FOR HEAD 
                                                   Max.-Head-Change                        Max.-Flux-Residual
  Residual-Control   Outer-Iter.   Inner-Iter.     Column Row Layer    Max.-Head-Change    Column Row Layer    Max.-Flux-Residual            L2-New               L2-Old           Solver-Max-Delh
          0                 1          11            71   16     1       0.1763405692E+01      71   16    1       0.4643359541E+05      0.3266007140E+06      0.5633360028E+02      0.1763405692E+01
          0                 2          10            51  103     3       0.9706031743E+01      51  103    3       0.1218568982E+05      0.3859507732E+05      0.3266007140E+06      0.9706031743E+01
          0                 3           6            51  103     3      -0.8823739103E+00      51  103    3      -0.1218569007E+04      0.1561076536E+04      0.3859507732E+05     -0.8823739103E+00
          0                 4           2            25   78     2       0.2713585002E-03      73   15    1      -0.6514584254E+00      0.9380556912E+00      0.1561076536E+04      0.2713585002E-03

    ------------------------------------------------
       NWT REQUIRED            4 OUTER ITERATIONS 
       AND A TOTAL OF         29 INNER ITERATIONS.
    ------------------------------------------------

 NO OUTPUT CONTROL FOR STRESS PERIOD   41   TIME STEP    4

 SOLVING FOR HEAD 
                                                   Max.-Head-Change                        Max.-Flux-Residual
  Residual-Control   Outer-Iter.   Inner-Iter.     Column Row Layer    Max.-Head-Change    Column Row Layer    Max.-Flux-Residual            L2-New               L2-Old           Solver-Max-Delh
          0                 1          11            51  103     3       0.7848210033E+01      71   16    1       0.4395888814E+05      0.2990608594E+06      0.9380556912E+00      0.7848210033E+01
          0                 2          10            51  103     3      -0.7135864854E+00      67   22    1      -0.1699269680E+05      0.3459753237E+05      0.2990608594E+06     -0.7135864854E+00
          0                 3           6            35   34     2      -0.5964260299E-01      35   34    2      -0.2729038391E+03      0.2918336189E+03      0.3459753237E+05     -0.5964260299E-01
          0                 4           3            25   78     2       0.2684280954E-03      64   86    2      -0.4617234208E+00      0.5013958592E+00      0.2918336189E+03      0.2684280954E-03

    ------------------------------------------------
       NWT REQUIRED            4 OUTER ITERATIONS 
       AND A TOTAL OF         30 INNER ITERATIONS.
    ------------------------------------------------

 NO OUTPUT CONTROL FOR STRESS PERIOD   41   TIME STEP    5

 SOLVING FOR HEAD 
                                                   Max.-Head-Change                        Max.-Flux-Residual
  Residual-Control   Outer-Iter.   Inner-Iter.     Column Row Layer    Max.-Head-Change    Column Row Layer    Max.-Flux-Residual            L2-New               L2-Old           Solver-Max-Delh
          0                 1          11            71   16     1       0.1584979193E+01      71   16    1       0.4165554481E+05      0.2802983147E+06      0.5013958592E+00      0.1584979193E+01
          0                 2           9            71   16     1      -0.1444582344E+00      71   16    1      -0.4179291978E+04      0.2823517968E+05      0.2802983147E+06     -0.1444582344E+00
          0                 3           5            25   78     2       0.1111545557E-02      73   14    1      -0.3743162137E+01      0.1277163664E+02      0.2823517968E+05      0.1111545557E-02

    ------------------------------------------------
       NWT REQUIRED            3 OUTER ITERATIONS 
       AND A TOTAL OF         25 INNER ITERATIONS.
    ------------------------------------------------

 NO OUTPUT CONTROL FOR STRESS PERIOD   41   TIME STEP    6

 SOLVING FOR HEAD 
                                                   Max.-Head-Change                        Max.-Flux-Residual
  Residual-Control   Outer-Iter.   Inner-Iter.     Column Row Layer    Max.-Head-Change    Column Row Layer    Max.-Flux-Residual            L2-New               L2-Old           Solver-Max-Delh
          0                 1          11            73   15     2       0.1551822447E+01      71   16    1       0.3951050334E+05      0.2655774825E+06      0.1277163664E+02      0.1551822447E+01
          0                 2           9            70   17     2       0.1293490918E+01      70   17    2       0.1069547139E+05      0.2862666390E+05      0.2655774825E+06      0.1293490918E+01
          0                 3           5            70   17     2      -0.1175678520E+00      70   17    2      -0.1065918635E+04      0.1081713285E+04      0.2862666390E+05     -0.1175678520E+00
          0                 4           2            25   78     2       0.2714579006E-03      69   17    1      -0.8081534877E-01      0.1693764739E+00      0.1081713285E+04      0.2714579006E-03

    ------------------------------------------------
       NWT REQUIRED            4 OUTER ITERATIONS 
       AND A TOTAL OF         27 INNER ITERATIONS.
    ------------------------------------------------

 NO OUTPUT CONTROL FOR STRESS PERIOD   41   TIME STEP    7

 SOLVING FOR HEAD 
                                                   Max.-Head-Change                        Max.-Flux-Residual
  Residual-Control   Outer-Iter.   Inner-Iter.     Column Row Layer    Max.-Head-Change    Column Row Layer    Max.-Flux-Residual            L2-New               L2-Old           Solver-Max-Delh
          0                 1          11            73   15     2       0.1521799798E+01      71   16    1       0.3754752299E+05      0.2541095599E+06      0.1693764739E+00      0.1521799798E+01
          0                 2           9            67   22     2       0.4091850880E+00      67   22    2       0.7116667821E+04      0.2638161697E+05      0.2541095599E+06      0.4091850880E+00
          0                 3           5            67   22     2      -0.3720328968E-01      67   22    2      -0.7072104587E+03      0.7271553565E+03      0.2638161697E+05     -0.3720328968E-01
          0                 4           2            25   78     2       0.2688630225E-03      27   52    3       0.6375368685E-01      0.1407918408E+00      0.7271553565E+03      0.2688630225E-03

    ------------------------------------------------
       NWT REQUIRED            4 OUTER ITERATIONS 
       AND A TOTAL OF         27 INNER ITERATIONS.
    ------------------------------------------------

 NO OUTPUT CONTROL FOR STRESS PERIOD   41   TIME STEP    8

 SOLVING FOR HEAD 
                                                   Max.-Head-Change                        Max.-Flux-Residual
  Residual-Control   Outer-Iter.   Inner-Iter.     Column Row Layer    Max.-Head-Change    Column Row Layer    Max.-Flux-Residual            L2-New               L2-Old           Solver-Max-Delh
          0                 1          11            73   15     2       0.1490705866E+01      71   16    1       0.3572779779E+05      0.2447128846E+06      0.1407918408E+00      0.1490705866E+01
          0                 2           9            73   11     3       0.2709376745E+00      71   16    1      -0.3581549786E+04      0.2453867035E+05      0.2447128846E+06      0.2709376745E+00
          0                 3           5            73   11     3      -0.2463549430E-01      73   11    3      -0.1014101139E+03      0.1048656030E+03      0.2453867035E+05     -0.2463549430E-01
          0                 4           2            25   78     2       0.2690154444E-03      67   16    2       0.5230005868E+00      0.5370303921E+00      0.1048656030E+03      0.2690154444E-03

    ------------------------------------------------
       NWT REQUIRED            4 OUTER ITERATIONS 
       AND A TOTAL OF         27 INNER ITERATIONS.
    ------------------------------------------------

 NO OUTPUT CONTROL FOR STRESS PERIOD   41   TIME STEP    9

 SOLVING FOR HEAD 
                                                   Max.-Head-Change                        Max.-Flux-Residual
  Residual-Control   Outer-Iter.   Inner-Iter.     Column Row Layer    Max.-Head-Change    Column Row Layer    Max.-Flux-Residual            L2-New               L2-Old           Solver-Max-Delh
          0                 1          11            73   15     2       0.1459204734E+01      71   16    1       0.3403642985E+05      0.2366342747E+06      0.5370303921E+00      0.1459204734E+01
          0                 2           9            70   19     2       0.1021715747E+01      70   19    2       0.1188901079E+05      0.2760420338E+05      0.2366342747E+06      0.1021715747E+01
          0                 3           5            70   19     2      -0.9288520285E-01      70   19    2      -0.1183455394E+04      0.1230198271E+04      0.2760420338E+05     -0.9288520285E-01
          0                 4           2            25   78     2       0.2693971864E-03      68   86    1      -0.1012991071E+00      0.1654795784E+00      0.1230198271E+04      0.2693971864E-03

    ------------------------------------------------
       NWT REQUIRED            4 OUTER ITERATIONS 
       AND A TOTAL OF         27 INNER ITERATIONS.
    ------------------------------------------------

 NO OUTPUT CONTROL FOR STRESS PERIOD   41   TIME STEP   10

 SOLVING FOR HEAD 
                                                   Max.-Head-Change                        Max.-Flux-Residual
  Residual-Control   Outer-Iter.   Inner-Iter.     Column Row Layer    Max.-Head-Change    Column Row Layer    Max.-Flux-Residual            L2-New               L2-Old           Solver-Max-Delh
          0                 1          11            70   19     2       0.2341986371E+01      70   19    1       0.3404073577E+05      0.2298846443E+06      0.1654795784E+00      0.2341986371E+01
          0                 2           9            72   15     2       0.1539377750E+01      72   15    2       0.1341848613E+05      0.2654606290E+05      0.2298846443E+06      0.1539377750E+01
          0                 3           5            72   15     2      -0.1398724441E+00      72   15    2      -0.1336056045E+04      0.1376222961E+04      0.2654606290E+05     -0.1398724441E+00
          0                 4           2            25   78     2       0.2697316732E-03      71   15    2       0.3949321993E-01      0.1203299016E+00      0.1376222961E+04      0.2697316732E-03

    ------------------------------------------------
       NWT REQUIRED            4 OUTER ITERATIONS 
       AND A TOTAL OF         27 INNER ITERATIONS.
    ------------------------------------------------

 NO OUTPUT CONTROL FOR STRESS PERIOD   41   TIME STEP   11

 SOLVING FOR HEAD 
                                                   Max.-Head-Change                        Max.-Flux-Residual
  Residual-Control   Outer-Iter.   Inner-Iter.     Column Row Layer    Max.-Head-Change    Column Row Layer    Max.-Flux-Residual            L2-New               L2-Old           Solver-Max-Delh
          0                 1          11            72   15     2       0.2263912026E+01      70   19    1       0.4101703739E+05      0.2254321878E+06      0.1203299016E+00      0.2263912026E+01
          0                 2           9            72   15     2      -0.2062556216E+00      70   19    1      -0.4112575276E+04      0.2279521405E+05      0.2254321878E+06     -0.2062556216E+00
          0                 3           5            57   99     3      -0.4447400095E-02      57   99    3      -0.1191117913E+03      0.1414351363E+03      0.2279521405E+05     -0.4447400095E-02

    ------------------------------------------------
       NWT REQUIRED            3 OUTER ITERATIONS 
       AND A TOTAL OF         25 INNER ITERATIONS.
    ------------------------------------------------

 OUTPUT CONTROL FOR STRESS PERIOD   41   TIME STEP   12
    SAVE BUDGET
 UBDSV1 SAVING "         STORAGE" ON UNIT  39 AT TIME STEP 12, STRESS PERIOD  41
 UBDSV2 SAVING "   CONSTANT HEAD" ON UNIT  39 AT TIME STEP 12, STRESS PERIOD  41
 UBDSV1 SAVING "FLOW RIGHT FACE " ON UNIT  39 AT TIME STEP 12, STRESS PERIOD  41
 UBDSV1 SAVING "FLOW FRONT FACE " ON UNIT  39 AT TIME STEP 12, STRESS PERIOD  41
 UBDSV1 SAVING "FLOW LOWER FACE " ON UNIT  39 AT TIME STEP 12, STRESS PERIOD  41
 UBDSV3 SAVING "              ET" ON UNIT  39 AT TIME STEP 12, STRESS PERIOD  41
 UBDSV3 SAVING "        RECHARGE" ON UNIT  39 AT TIME STEP 12, STRESS PERIOD  41
1
  VOLUMETRIC BUDGET FOR ENTIRE MODEL AT END OF TIME STEP   12, STRESS PERIOD  41
  ------------------------------------------------------------------------------

     CUMULATIVE VOLUMES      L**3       RATES FOR THIS TIME STEP      L**3/T
     ------------------                 ------------------------

           IN:                                      IN:
           ---                                      ---
             STORAGE = 34032539648.0000               STORAGE =     2976382.2500
       CONSTANT HEAD = 13824835584.0000         CONSTANT HEAD =      920858.7500
               WELLS =   324179520.0000                 WELLS =           0.0000
                  ET =           0.0000                    ET =           0.0000
            RECHARGE =274213339136.0000              RECHARGE =    21131138.0000

            TOTAL IN =322394882048.0000              TOTAL IN =    25028380.0000

          OUT:                                     OUT:
          ----                                     ----
             STORAGE = 80571113472.0000               STORAGE =     6039224.5000
       CONSTANT HEAD = 96224837632.0000         CONSTANT HEAD =     7640689.5000
               WELLS =   549084352.0000                 WELLS =       51823.0000
                  ET =145050451968.0000                    ET =    11296670.0000
            RECHARGE =           0.0000              RECHARGE =           0.0000

           TOTAL OUT =322395471872.0000             TOTAL OUT =    25028408.0000

            IN - OUT =     -589824.0000              IN - OUT =         -28.0000

 PERCENT DISCREPANCY =          -0.00     PERCENT DISCREPANCY =          -0.00






         TIME SUMMARY AT END OF TIME STEP   12 IN STRESS PERIOD   41
                    SECONDS     MINUTES      HOURS       DAYS        YEARS
                    -----------------------------------------------------------
   TIME STEP LENGTH 2.63520E+06  43920.      732.00      30.500     8.35044E-02
 STRESS PERIOD TIME 3.16224E+07 5.27040E+05  8784.0      366.00      1.0021    
         TOTAL TIME 1.29393E+09 2.15655E+07 3.59425E+05  14976.      41.002    
1
1
                            STRESS PERIOD NO.   42, LENGTH =   365.0000    
                            -----------------------------------------------

                              NUMBER OF TIME STEPS =    12

                               MULTIPLIER FOR DELT =     1.000

                            INITIAL TIME STEP SIZE =   30.41667    

 WELL NO.  LAYER   ROW   COL   STRESS RATE         
 --------------------------------------------------
      1      1     39     50     -0.4738E+05
      2      2     39     50      -479.0    

      2 WELLS

 REUSING SURF FROM LAST STRESS PERIOD

 REUSING EVTR FROM LAST STRESS PERIOD

 REUSING EXDP FROM LAST STRESS PERIOD



                           RECHARGE
 READING ON UNIT   16 WITH FORMAT: (15F5.0)            


     63 TIME-VARIANT SPECIFIED-HEAD CELLS

 SOLVING FOR HEAD 
                                                   Max.-Head-Change                        Max.-Flux-Residual
  Residual-Control   Outer-Iter.   Inner-Iter.     Column Row Layer    Max.-Head-Change    Column Row Layer    Max.-Flux-Residual            L2-New               L2-Old           Solver-Max-Delh
          0                 1          11            51  103     3       0.4478990621E+02      32   21    1       0.1761327450E+06      0.5027472875E+06      0.1414351363E+03      0.4478990621E+02
          0                 2          10            65    5     2      -0.1806518916E+02      65    5    2      -0.4792321908E+06      0.6058085958E+06      0.5027472875E+06     -0.1806518916E+02
          0                 3           6            66    5     2       0.1882676663E+01      65    5    2      -0.4062360544E+04      0.4960975489E+04      0.6058085958E+06      0.1882676663E+01
          0                 4           4            66    5     2       0.2854867236E+00      65    4    2       0.1831460324E+03      0.2604355998E+03      0.4960975489E+04      0.2854867236E+00
          0                 5           3            66    5     2       0.4289325445E-01      66    5    2       0.1791680085E+02      0.2911805542E+02      0.2604355998E+03      0.4289325445E-01
          0                 6           2            66    5     2       0.6440583629E-02      66    5    2       0.2690106950E+01      0.3595523368E+01      0.2911805542E+02      0.6440583629E-02

    ------------------------------------------------
       NWT REQUIRED            6 OUTER ITERATIONS 
       AND A TOTAL OF         36 INNER ITERATIONS.
    ------------------------------------------------

 NO OUTPUT CONTROL FOR STRESS PERIOD   42   TIME STEP    1

 SOLVING FOR HEAD 
                                                   Max.-Head-Change                        Max.-Flux-Residual
  Residual-Control   Outer-Iter.   Inner-Iter.     Column Row Layer    Max.-Head-Change    Column Row Layer    Max.-Flux-Residual            L2-New               L2-Old           Solver-Max-Delh
          0                 1          11            51  103     3       0.4734537982E+01      51  104    3       0.8960536156E+05      0.3680599201E+06      0.3595523368E+01      0.4734537982E+01
          0                 2          10            36   66     2      -0.4041083668E+01      51  104    3      -0.9033235860E+04      0.3820913082E+05      0.3680599201E+06     -0.4041083668E+01
          0                 3           6            36   66     2       0.2661103745E+00      36   66    2       0.7350094421E+03      0.1056628276E+04      0.3820913082E+05      0.2661103745E+00
          0                 4           3            36   66     1       0.7001490317E-02      36   66    2       0.7557668884E+01      0.1102968828E+02      0.1056628276E+04      0.7001490317E-02

    ------------------------------------------------
       NWT REQUIRED            4 OUTER ITERATIONS 
       AND A TOTAL OF         30 INNER ITERATIONS.
    ------------------------------------------------

 NO OUTPUT CONTROL FOR STRESS PERIOD   42   TIME STEP    2

 SOLVING FOR HEAD 
                                                   Max.-Head-Change                        Max.-Flux-Residual
  Residual-Control   Outer-Iter.   Inner-Iter.     Column Row Layer    Max.-Head-Change    Column Row Layer    Max.-Flux-Residual            L2-New               L2-Old           Solver-Max-Delh
          0                 1          11            51  104     3       0.3776332565E+01      51  104    3       0.8451453775E+05      0.3298573188E+06      0.1102968828E+02      0.3776332565E+01
          0                 2          10            63   25     2       0.1437590790E+01      63   25    2       0.1092402903E+05      0.3478820052E+05      0.3298573188E+06      0.1437590790E+01
          0                 3           6            63   25     2      -0.1306960958E+00      63   25    2      -0.1092445844E+04      0.1131805114E+04      0.3478820052E+05     -0.1306960958E+00
          0                 4           2            25   78     2       0.2730727155E-03      35   66    3       0.1697501652E+00      0.4627083558E+00      0.1131805114E+04      0.2730727155E-03

    ------------------------------------------------
       NWT REQUIRED            4 OUTER ITERATIONS 
       AND A TOTAL OF         29 INNER ITERATIONS.
    ------------------------------------------------

 NO OUTPUT CONTROL FOR STRESS PERIOD   42   TIME STEP    3

 SOLVING FOR HEAD 
                                                   Max.-Head-Change                        Max.-Flux-Residual
  Residual-Control   Outer-Iter.   Inner-Iter.     Column Row Layer    Max.-Head-Change    Column Row Layer    Max.-Flux-Residual            L2-New               L2-Old           Solver-Max-Delh
          0                 1          11            51  104     3       0.3525460911E+01      51  104    3       0.7883967858E+05      0.3123183381E+06      0.4627083558E+00      0.3525460911E+01
          0                 2          10            51  104     3      -0.3220971655E+00      51  104    3      -0.7934210511E+04      0.3128223847E+05      0.3123183381E+06     -0.3220971655E+00
          0                 3           5            73   15     1      -0.1165462122E-02      86   49    1      -0.1127651168E+02      0.2005739999E+02      0.3128223847E+05     -0.1165462122E-02

    ------------------------------------------------
       NWT REQUIRED            3 OUTER ITERATIONS 
       AND A TOTAL OF         26 INNER ITERATIONS.
    ------------------------------------------------

 NO OUTPUT CONTROL FOR STRESS PERIOD   42   TIME STEP    4

 SOLVING FOR HEAD 
                                                   Max.-Head-Change                        Max.-Flux-Residual
  Residual-Control   Outer-Iter.   Inner-Iter.     Column Row Layer    Max.-Head-Change    Column Row Layer    Max.-Flux-Residual            L2-New               L2-Old           Solver-Max-Delh
          0                 1          11            51  104     3       0.3296393433E+01      51  104    3       0.7360907083E+05      0.3010678478E+06      0.2005739999E+02      0.3296393433E+01
          0                 2          10            51  104     3      -0.3010046058E+00      51  104    3      -0.7402726959E+04      0.3013374360E+05      0.3010678478E+06     -0.3010046058E+00
          0                 3           5            63   29     2       0.1369782490E-01      63   29    2       0.1059724905E+04      0.1059945148E+04      0.3013374360E+05      0.1369782490E-01
          0                 4           3            63   29     2       0.1232987685E-02      63   29    2       0.9537070904E+02      0.9537773692E+02      0.1059945148E+04      0.1232987685E-02

    ------------------------------------------------
       NWT REQUIRED            4 OUTER ITERATIONS 
       AND A TOTAL OF         29 INNER ITERATIONS.
    ------------------------------------------------

 NO OUTPUT CONTROL FOR STRESS PERIOD   42   TIME STEP    5

 SOLVING FOR HEAD 
                                                   Max.-Head-Change                        Max.-Flux-Residual
  Residual-Control   Outer-Iter.   Inner-Iter.     Column Row Layer    Max.-Head-Change    Column Row Layer    Max.-Flux-Residual            L2-New               L2-Old           Solver-Max-Delh
          0                 1          11            51  104     3       0.3087425769E+01      51  104    3       0.6883220609E+05      0.2924851650E+06      0.9537773692E+02      0.3087425769E+01
          0                 2          10            63   29     2       0.3737835867E+00      66   22    1      -0.1346528753E+05      0.3511015751E+05      0.2924851650E+06      0.3737835867E+00
          0                 3           6            63   29     2      -0.3397966067E-01      63   29    2      -0.1040692876E+04      0.1282130834E+04      0.3511015751E+05     -0.3397966067E-01
          0                 4           2            25   78     2       0.2751728497E-03      71   15    2       0.6805818854E+00      0.8308631759E+00      0.1282130834E+04      0.2751728497E-03

    ------------------------------------------------
       NWT REQUIRED            4 OUTER ITERATIONS 
       AND A TOTAL OF         29 INNER ITERATIONS.
    ------------------------------------------------

 NO OUTPUT CONTROL FOR STRESS PERIOD   42   TIME STEP    6

 SOLVING FOR HEAD 
                                                   Max.-Head-Change                        Max.-Flux-Residual
  Residual-Control   Outer-Iter.   Inner-Iter.     Column Row Layer    Max.-Head-Change    Column Row Layer    Max.-Flux-Residual            L2-New               L2-Old           Solver-Max-Delh
          0                 1          11            51  104     3       0.2896831874E+01      51  104    3       0.6447368553E+05      0.2856753429E+06      0.8308631759E+00      0.2896831874E+01
          0                 2          10            52  103     3       0.1314894977E+02      52  103    3       0.1997545840E+05      0.3494725165E+05      0.2856753429E+06      0.1314894977E+02
          0                 3           6            52  103     3      -0.1195365307E+01      52  103    3      -0.1997545874E+04      0.2087620384E+04      0.3494725165E+05     -0.1195365307E+01
          0                 4           2            25   78     2       0.2759767126E-03      35   65    3       0.5145085976E-01      0.1536769214E+00      0.2087620384E+04      0.2759767126E-03

    ------------------------------------------------
       NWT REQUIRED            4 OUTER ITERATIONS 
       AND A TOTAL OF         29 INNER ITERATIONS.
    ------------------------------------------------

 NO OUTPUT CONTROL FOR STRESS PERIOD   42   TIME STEP    7

 SOLVING FOR HEAD 
                                                   Max.-Head-Change                        Max.-Flux-Residual
  Residual-Control   Outer-Iter.   Inner-Iter.     Column Row Layer    Max.-Head-Change    Column Row Layer    Max.-Flux-Residual            L2-New               L2-Old           Solver-Max-Delh
          0                 1          11            52  103     3       0.9016326882E+01      51  104    3       0.6430991737E+05      0.2802748942E+06      0.1536769214E+00      0.9016326882E+01
          0                 2          10            52  103     3      -0.8198622459E+00      51  104    3      -0.6457606990E+04      0.2790935486E+05      0.2802748942E+06     -0.8198622459E+00
          0                 3           5            73   14     2       0.3929540443E-02      73   14    2       0.1554212246E+03      0.1561961401E+03      0.2790935486E+05      0.3929540443E-02

    ------------------------------------------------
       NWT REQUIRED            3 OUTER ITERATIONS 
       AND A TOTAL OF         26 INNER ITERATIONS.
    ------------------------------------------------

 NO OUTPUT CONTROL FOR STRESS PERIOD   42   TIME STEP    8

 SOLVING FOR HEAD 
                                                   Max.-Head-Change                        Max.-Flux-Residual
  Residual-Control   Outer-Iter.   Inner-Iter.     Column Row Layer    Max.-Head-Change    Column Row Layer    Max.-Flux-Residual            L2-New               L2-Old           Solver-Max-Delh
          0                 1          11            51  104     3       0.2859223172E+01      51  104    3       0.6292958403E+05      0.2761351258E+06      0.1561961401E+03      0.2859223172E+01
          0                 2          10            73   14     2       0.2809568718E+01      73   14    2       0.2810892872E+05      0.3933118607E+05      0.2761351258E+06      0.2809568718E+01
          0                 3           6            73   14     2      -0.2553334016E+00      73   14    2      -0.2804842651E+04      0.2847982252E+04      0.3933118607E+05     -0.2553334016E+00
          0                 4           2            25   78     2       0.2807014720E-03      72   14    2       0.2804261213E+00      0.3148443661E+00      0.2847982252E+04      0.2807014720E-03

    ------------------------------------------------
       NWT REQUIRED            4 OUTER ITERATIONS 
       AND A TOTAL OF         29 INNER ITERATIONS.
    ------------------------------------------------

 NO OUTPUT CONTROL FOR STRESS PERIOD   42   TIME STEP    9

 SOLVING FOR HEAD 
                                                   Max.-Head-Change                        Max.-Flux-Residual
  Residual-Control   Outer-Iter.   Inner-Iter.     Column Row Layer    Max.-Head-Change    Column Row Layer    Max.-Flux-Residual            L2-New               L2-Old           Solver-Max-Delh
          0                 1          11            51  104     3       0.2708905371E+01      51  104    3       0.5971988038E+05      0.2738894651E+06      0.3148443661E+00      0.2708905371E+01
          0                 2          10            69   21     2       0.1705054846E+01      69   21    2       0.1641931298E+05      0.3284775003E+05      0.2738894651E+06      0.1705054846E+01
          0                 3           6            69   21     2      -0.1549869903E+00      69   21    2      -0.1640141918E+04      0.2075324190E+04      0.3284775003E+05     -0.1549869903E+00
          0                 4           5            63   28     2       0.1244641956E-02      63   28    2       0.7925934683E+02      0.8120813399E+02      0.2075324190E+04      0.1244641956E-02

    ------------------------------------------------
       NWT REQUIRED            4 OUTER ITERATIONS 
       AND A TOTAL OF         32 INNER ITERATIONS.
    ------------------------------------------------

 NO OUTPUT CONTROL FOR STRESS PERIOD   42   TIME STEP   10

 SOLVING FOR HEAD 
                                                   Max.-Head-Change                        Max.-Flux-Residual
  Residual-Control   Outer-Iter.   Inner-Iter.     Column Row Layer    Max.-Head-Change    Column Row Layer    Max.-Flux-Residual            L2-New               L2-Old           Solver-Max-Delh
          0                 1          11            51  104     3       0.2569554298E+01      51  104    3       0.5658323354E+05      0.2704746703E+06      0.8120813399E+02      0.2569554298E+01
          0                 2          10            63   28     2       0.4006965759E+00      63   28    2       0.9000190136E+04      0.2860348973E+05      0.2704746703E+06      0.4006965759E+00
          0                 3           6            63   28     2      -0.3643005872E-01      63   28    2      -0.9000190277E+03      0.9516772493E+03      0.2860348973E+05     -0.3643005872E-01
          0                 4           2            25   78     2       0.2798130981E-03      73   15    1      -0.2803893574E-01      0.1289998087E+00      0.9516772493E+03      0.2798130981E-03

    ------------------------------------------------
       NWT REQUIRED            4 OUTER ITERATIONS 
       AND A TOTAL OF         29 INNER ITERATIONS.
    ------------------------------------------------

 NO OUTPUT CONTROL FOR STRESS PERIOD   42   TIME STEP   11

 INTERPOLATION FOR HEAD OBS# 1654, ID 2303-42-351  CHANGED BECAUSE AT LEAST ONE
 NEIGHBORING CELL REQUIRED FOR INTERPOLATION IS DRY OR INACTIVE (OBS2BAS7SE)

 INTERPOLATION FOR HEAD OBS# 1740, ID 2615-42-350  CHANGED BECAUSE AT LEAST ONE
 NEIGHBORING CELL REQUIRED FOR INTERPOLATION IS DRY OR INACTIVE (OBS2BAS7SE)

 INTERPOLATION FOR HEAD OBS# 1762, ID 2498-42-350  CHANGED BECAUSE AT LEAST ONE
 NEIGHBORING CELL REQUIRED FOR INTERPOLATION IS DRY OR INACTIVE (OBS2BAS7SE)

 INTERPOLATION FOR HEAD OBS# 2180, ID 2355-42-362  CHANGED BECAUSE AT LEAST ONE
 NEIGHBORING CELL REQUIRED FOR INTERPOLATION IS DRY OR INACTIVE (OBS2BAS7SE)

 INTERPOLATION FOR HEAD OBS# 2524, ID 2243-42-364  CHANGED BECAUSE AT LEAST ONE
 NEIGHBORING CELL REQUIRED FOR INTERPOLATION IS DRY OR INACTIVE (OBS2BAS7SE)

 INTERPOLATION FOR HEAD OBS# 3751, ID 1427-42-362  CHANGED BECAUSE AT LEAST ONE
 NEIGHBORING CELL REQUIRED FOR INTERPOLATION IS DRY OR INACTIVE (OBS2BAS7SE)

 INTERPOLATION FOR HEAD OBS# 7389, ID 218-42-337   CHANGED BECAUSE AT LEAST ONE
 NEIGHBORING CELL REQUIRED FOR INTERPOLATION IS DRY OR INACTIVE (OBS2BAS7SE)

 INTERPOLATION FOR HEAD OBS# 7525, ID 269-42-337   CHANGED BECAUSE AT LEAST ONE
 NEIGHBORING CELL REQUIRED FOR INTERPOLATION IS DRY OR INACTIVE (OBS2BAS7SE)

 SOLVING FOR HEAD 
                                                   Max.-Head-Change                        Max.-Flux-Residual
  Residual-Control   Outer-Iter.   Inner-Iter.     Column Row Layer    Max.-Head-Change    Column Row Layer    Max.-Flux-Residual            L2-New               L2-Old           Solver-Max-Delh
          0                 1          11            51  104     3       0.2440800804E+01      51  104    3       0.5367508820E+05      0.2673531506E+06      0.1289998087E+00      0.2440800804E+01
          0                 2          10            71   19     3       0.3369339737E+00      66   21    1      -0.9098576123E+04      0.2828679132E+05      0.2673531506E+06      0.3369339737E+00
          0                 3           5            71   19     3      -0.3063425007E-01      71   19    3      -0.1649969017E+03      0.1871597265E+03      0.2828679132E+05     -0.3063425007E-01
          0                 4           2            25   78     2       0.2809723950E-03      66   22    1       0.2755662054E-01      0.1286670164E+00      0.1871597265E+03      0.2809723950E-03

    ------------------------------------------------
       NWT REQUIRED            4 OUTER ITERATIONS 
       AND A TOTAL OF         28 INNER ITERATIONS.
    ------------------------------------------------

 OUTPUT CONTROL FOR STRESS PERIOD   42   TIME STEP   12
    SAVE BUDGET
 UBDSV1 SAVING "         STORAGE" ON UNIT  39 AT TIME STEP 12, STRESS PERIOD  42
 UBDSV2 SAVING "   CONSTANT HEAD" ON UNIT  39 AT TIME STEP 12, STRESS PERIOD  42
 UBDSV1 SAVING "FLOW RIGHT FACE " ON UNIT  39 AT TIME STEP 12, STRESS PERIOD  42
 UBDSV1 SAVING "FLOW FRONT FACE " ON UNIT  39 AT TIME STEP 12, STRESS PERIOD  42
 UBDSV1 SAVING "FLOW LOWER FACE " ON UNIT  39 AT TIME STEP 12, STRESS PERIOD  42
 UBDSV3 SAVING "              ET" ON UNIT  39 AT TIME STEP 12, STRESS PERIOD  42
 UBDSV3 SAVING "        RECHARGE" ON UNIT  39 AT TIME STEP 12, STRESS PERIOD  42

 INTERPOLATION FOR HEAD OBS#  635, ID 3014-42-365  CHANGED BECAUSE AT LEAST ONE
 NEIGHBORING CELL REQUIRED FOR INTERPOLATION IS DRY OR INACTIVE (OBS2BAS7SE)

 INTERPOLATION FOR HEAD OBS#  648, ID 3055-43-6    CHANGED BECAUSE AT LEAST ONE
 NEIGHBORING CELL REQUIRED FOR INTERPOLATION IS DRY OR INACTIVE (OBS2BAS7SE)

 INTERPOLATION FOR HEAD OBS# 1333, ID 2852-43-5    CHANGED BECAUSE AT LEAST ONE
 NEIGHBORING CELL REQUIRED FOR INTERPOLATION IS DRY OR INACTIVE (OBS2BAS7SE)

 INTERPOLATION FOR HEAD OBS# 1337, ID 2869-43-8    CHANGED BECAUSE AT LEAST ONE
 NEIGHBORING CELL REQUIRED FOR INTERPOLATION IS DRY OR INACTIVE (OBS2BAS7SE)

 INTERPOLATION FOR HEAD OBS# 1400, ID 2840-43-5    CHANGED BECAUSE AT LEAST ONE
 NEIGHBORING CELL REQUIRED FOR INTERPOLATION IS DRY OR INACTIVE (OBS2BAS7SE)

 INTERPOLATION FOR HEAD OBS# 3694, ID 1479-43-5    CHANGED BECAUSE AT LEAST ONE
 NEIGHBORING CELL REQUIRED FOR INTERPOLATION IS DRY OR INACTIVE (OBS2BAS7SE)

 INTERPOLATION FOR HEAD OBS# 3708, ID 1471-43-5    CHANGED BECAUSE AT LEAST ONE
 NEIGHBORING CELL REQUIRED FOR INTERPOLATION IS DRY OR INACTIVE (OBS2BAS7SE)

 INTERPOLATION FOR HEAD OBS# 3768, ID 1405-43-5    CHANGED BECAUSE AT LEAST ONE
 NEIGHBORING CELL REQUIRED FOR INTERPOLATION IS DRY OR INACTIVE (OBS2BAS7SE)
1
  VOLUMETRIC BUDGET FOR ENTIRE MODEL AT END OF TIME STEP   12, STRESS PERIOD  42
  ------------------------------------------------------------------------------

     CUMULATIVE VOLUMES      L**3       RATES FOR THIS TIME STEP      L**3/T
     ------------------                 ------------------------

           IN:                                      IN:
           ---                                      ---
             STORAGE = 34628534272.0000               STORAGE =     1250659.1250
       CONSTANT HEAD = 14181775360.0000         CONSTANT HEAD =     1020475.7500
               WELLS =   324179520.0000                 WELLS =           0.0000
                  ET =           0.0000                    ET =           0.0000
            RECHARGE =283282866176.0000              RECHARGE =    24848356.0000

            TOTAL IN =332417368064.0000              TOTAL IN =    27119492.0000

          OUT:                                     OUT:
          ----                                     ----
             STORAGE = 83740770304.0000               STORAGE =     8477487.0000
       CONSTANT HEAD = 98975014912.0000         CONSTANT HEAD =     7486285.5000
               WELLS =   566552512.0000                 WELLS =       47857.0000
                  ET =149135736832.0000                    ET =    11107887.0000
            RECHARGE =           0.0000              RECHARGE =           0.0000

           TOTAL OUT =332418056192.0000             TOTAL OUT =    27119516.0000

            IN - OUT =     -688128.0000              IN - OUT =         -24.0000

 PERCENT DISCREPANCY =          -0.00     PERCENT DISCREPANCY =          -0.00






         TIME SUMMARY AT END OF TIME STEP   12 IN STRESS PERIOD   42
                    SECONDS     MINUTES      HOURS       DAYS        YEARS
                    -----------------------------------------------------------
   TIME STEP LENGTH 2.62800E+06  43800.      730.00      30.417     8.32763E-02
 STRESS PERIOD TIME 3.15360E+07 5.25600E+05  8760.0      365.00     0.99932    
         TOTAL TIME 1.32547E+09 2.20911E+07 3.68185E+05  15341.      42.001    
1
1
                            STRESS PERIOD NO.   43, LENGTH =   365.0000    
                            -----------------------------------------------

                              NUMBER OF TIME STEPS =    12

                               MULTIPLIER FOR DELT =     1.000

                            INITIAL TIME STEP SIZE =   30.41667    

 WELL NO.  LAYER   ROW   COL   STRESS RATE         
 --------------------------------------------------
      1      2     39     51      -4368.    

      1 WELL 

 REUSING SURF FROM LAST STRESS PERIOD

 REUSING EVTR FROM LAST STRESS PERIOD

 REUSING EXDP FROM LAST STRESS PERIOD



                           RECHARGE
 READING ON UNIT   16 WITH FORMAT: (15F5.0)            


     63 TIME-VARIANT SPECIFIED-HEAD CELLS

 SOLVING FOR HEAD 
                                                   Max.-Head-Change                        Max.-Flux-Residual
  Residual-Control   Outer-Iter.   Inner-Iter.     Column Row Layer    Max.-Head-Change    Column Row Layer    Max.-Flux-Residual            L2-New               L2-Old           Solver-Max-Delh
          0                 1          11            65    2     2      -0.9121253166E+02      32   21    1      -0.1711539270E+06      0.5242192793E+06      0.1286670164E+00     -0.9121253166E+02
          0                 2          10            65    2     2       0.3213864952E+01      32   21    1       0.1656704044E+05      0.5352462955E+05      0.5242192793E+06      0.3213864952E+01
          0                 3           5            65    2     2       0.1794123211E+00      66   21    2      -0.1546249802E+04      0.2176590270E+04      0.5352462955E+05      0.1794123211E+00
          0                 4           3            65    2     2       0.1007497906E-01      65    2    2       0.4514068154E+01      0.7314826110E+01      0.2176590270E+04      0.1007497906E-01
          0                 5           2            65    2     2       0.5649184559E-03      66   21    2       0.3767893501E+00      0.6476737595E+00      0.7314826110E+01      0.5649184559E-03

    ------------------------------------------------
       NWT REQUIRED            5 OUTER ITERATIONS 
       AND A TOTAL OF         31 INNER ITERATIONS.
    ------------------------------------------------

 NO OUTPUT CONTROL FOR STRESS PERIOD   43   TIME STEP    1

 INTERPOLATION FOR HEAD OBS# 7372, ID 451-43-53    CHANGED BECAUSE AT LEAST ONE
 NEIGHBORING CELL REQUIRED FOR INTERPOLATION IS DRY OR INACTIVE (OBS2BAS7SE)

 SOLVING FOR HEAD 
                                                   Max.-Head-Change                        Max.-Flux-Residual
  Residual-Control   Outer-Iter.   Inner-Iter.     Column Row Layer    Max.-Head-Change    Column Row Layer    Max.-Flux-Residual            L2-New               L2-Old           Solver-Max-Delh
          0                 1          11            70   19     1      -0.3131746076E+01      70   19    1      -0.9584667353E+05      0.3674716470E+06      0.6476737595E+00     -0.3131746076E+01
          0                 2          10            70   19     1       0.2823697647E+00      70   19    1       0.9482843405E+04      0.3665905564E+05      0.3674716470E+06      0.2823697647E+00
          0                 3           5            64    2     3       0.1315368313E-02      64    2    3       0.4367406623E+02      0.5164692300E+02      0.3665905564E+05      0.1315368313E-02

    ------------------------------------------------
       NWT REQUIRED            3 OUTER ITERATIONS 
       AND A TOTAL OF         26 INNER ITERATIONS.
    ------------------------------------------------

 NO OUTPUT CONTROL FOR STRESS PERIOD   43   TIME STEP    2

 SOLVING FOR HEAD 
                                                   Max.-Head-Change                        Max.-Flux-Residual
  Residual-Control   Outer-Iter.   Inner-Iter.     Column Row Layer    Max.-Head-Change    Column Row Layer    Max.-Flux-Residual            L2-New               L2-Old           Solver-Max-Delh
          0                 1          11            70   19     1      -0.2787340745E+01      70   19    1      -0.8489595052E+05      0.3153541315E+06      0.5164692300E+02     -0.2787340745E+01
          0                 2          10            65    6     2      -0.3710999891E+01      70   19    1       0.8411685391E+04      0.3149777935E+05      0.3153541315E+06     -0.3710999891E+01
          0                 3           5            65    6     2       0.1866247214E+00      65    6    3      -0.2035282403E+03      0.2365648283E+03      0.3149777935E+05      0.1866247214E+00
          0                 4           2            65    6     2       0.7634621328E-02      65    6    2       0.4749451446E+01      0.4755875700E+01      0.2365648283E+03      0.7634621328E-02

    ------------------------------------------------
       NWT REQUIRED            4 OUTER ITERATIONS 
       AND A TOTAL OF         28 INNER ITERATIONS.
    ------------------------------------------------

 NO OUTPUT CONTROL FOR STRESS PERIOD   43   TIME STEP    3

 SOLVING FOR HEAD 
                                                   Max.-Head-Change                        Max.-Flux-Residual
  Residual-Control   Outer-Iter.   Inner-Iter.     Column Row Layer    Max.-Head-Change    Column Row Layer    Max.-Flux-Residual            L2-New               L2-Old           Solver-Max-Delh
          0                 1          11            65    6     2      -0.3047145731E+02      70   19    1      -0.7555704797E+05      0.2850072917E+06      0.4755875700E+01     -0.3047145731E+02
          0                 2          10            65    3     2      -0.1725560703E+02      70   19    1       0.7495703275E+04      0.2921260194E+05      0.2850072917E+06     -0.1725560703E+02
          0                 3           6            65    3     2       0.5698051125E+00      65    3    2       0.2519523899E+03      0.3702339925E+03      0.2921260194E+05      0.5698051125E+00
          0                 4           2            65    3     2       0.3268284570E-01      65    3    2       0.1443791504E+02      0.1585335587E+02      0.3702339925E+03      0.3268284570E-01
          0                 5           2            65    3     2       0.1872110504E-02      65    3    2       0.8269313634E+00      0.9044315493E+00      0.1585335587E+02      0.1872110504E-02

    ------------------------------------------------
       NWT REQUIRED            5 OUTER ITERATIONS 
       AND A TOTAL OF         31 INNER ITERATIONS.
    ------------------------------------------------

 NO OUTPUT CONTROL FOR STRESS PERIOD   43   TIME STEP    4

 SOLVING FOR HEAD 
                                                   Max.-Head-Change                        Max.-Flux-Residual
  Residual-Control   Outer-Iter.   Inner-Iter.     Column Row Layer    Max.-Head-Change    Column Row Layer    Max.-Flux-Residual            L2-New               L2-Old           Solver-Max-Delh
          0                 1          11            65    3     2      -0.1480335363E+02      70   19    1      -0.6753688468E+05      0.2633254670E+06      0.9044315493E+00     -0.1480335363E+02
          0                 2          10            65    3     2       0.1948165363E+01      13    9    1      -0.1153114779E+05      0.2933871238E+05      0.2633254670E+06      0.1948165363E+01
          0                 3           5            65    3     2       0.9899427435E-01      39   63    3      -0.5688474919E+02      0.8122010268E+02      0.2933871238E+05      0.9899427435E-01
          0                 4           2            65    3     2       0.5029858188E-02      65    3    2       0.2491531159E+01      0.2749431561E+01      0.8122010268E+02      0.5029858188E-02

    ------------------------------------------------
       NWT REQUIRED            4 OUTER ITERATIONS 
       AND A TOTAL OF         28 INNER ITERATIONS.
    ------------------------------------------------

 NO OUTPUT CONTROL FOR STRESS PERIOD   43   TIME STEP    5

 SOLVING FOR HEAD 
                                                   Max.-Head-Change                        Max.-Flux-Residual
  Residual-Control   Outer-Iter.   Inner-Iter.     Column Row Layer    Max.-Head-Change    Column Row Layer    Max.-Flux-Residual            L2-New               L2-Old           Solver-Max-Delh
          0                 1          11            70   19     1      -0.2015357347E+01      70   19    1      -0.6061342491E+05      0.2471805856E+06      0.2749431561E+01     -0.2015357347E+01
          0                 2          10            65    5     2      -0.2815778816E+02      69   21    2       0.1947555225E+05      0.3419755078E+05      0.2471805856E+06     -0.2815778816E+02
          0                 3           5            65    5     2       0.2213715683E+01      65    5    2       0.1286411891E+04      0.1485133611E+04      0.3419755078E+05      0.2213715683E+01
          0                 4           2            65    5     2       0.9684407830E-01      65    5    2       0.5632900805E+02      0.7448228620E+02      0.1485133611E+04      0.9684407830E-01
          0                 5           2            65    5     2       0.4215446591E-02      65    4    2      -0.3911744421E+01      0.4724195915E+01      0.7448228620E+02      0.4215446591E-02

    ------------------------------------------------
       NWT REQUIRED            5 OUTER ITERATIONS 
       AND A TOTAL OF         30 INNER ITERATIONS.
    ------------------------------------------------

 NO OUTPUT CONTROL FOR STRESS PERIOD   43   TIME STEP    6

 SOLVING FOR HEAD 
                                                   Max.-Head-Change                        Max.-Flux-Residual
  Residual-Control   Outer-Iter.   Inner-Iter.     Column Row Layer    Max.-Head-Change    Column Row Layer    Max.-Flux-Residual            L2-New               L2-Old           Solver-Max-Delh
          0                 1          11            65    5     2      -0.5592094770E+01      70   19    1      -0.5460385666E+05      0.2339960601E+06      0.4724195915E+01     -0.5592094770E+01
          0                 2          10            73   14     2       0.3104445926E+00      73   14    2       0.1000926654E+05      0.2543756244E+05      0.2339960601E+06      0.3104445926E+00
          0                 3           5            65    5     2       0.1042191931E-01      71   19    2      -0.3739971080E+02      0.3926303034E+02      0.2543756244E+05      0.1042191931E-01
          0                 4           2            65    5     2       0.4544925057E-03      65    5    2       0.2623758367E+00      0.2974188945E+00      0.3926303034E+02      0.4544925057E-03

    ------------------------------------------------
       NWT REQUIRED            4 OUTER ITERATIONS 
       AND A TOTAL OF         28 INNER ITERATIONS.
    ------------------------------------------------

 NO OUTPUT CONTROL FOR STRESS PERIOD   43   TIME STEP    7

 SOLVING FOR HEAD 
                                                   Max.-Head-Change                        Max.-Flux-Residual
  Residual-Control   Outer-Iter.   Inner-Iter.     Column Row Layer    Max.-Head-Change    Column Row Layer    Max.-Flux-Residual            L2-New               L2-Old           Solver-Max-Delh
          0                 1          11            70   19     1      -0.1698576714E+01      70   19    1      -0.4975580048E+05      0.2237267173E+06      0.2974188945E+00     -0.1698576714E+01
          0                 2          10            70   19     1       0.1538496011E+00      70   19    1       0.4951533024E+04      0.2235810899E+05      0.2237267173E+06      0.1538496011E+00
          0                 3           5            25   77     2       0.1229385918E-02      73   13    1       0.2321503505E+01      0.1008061005E+02      0.2235810899E+05      0.1229385918E-02

    ------------------------------------------------
       NWT REQUIRED            3 OUTER ITERATIONS 
       AND A TOTAL OF         26 INNER ITERATIONS.
    ------------------------------------------------

 NO OUTPUT CONTROL FOR STRESS PERIOD   43   TIME STEP    8

 SOLVING FOR HEAD 
                                                   Max.-Head-Change                        Max.-Flux-Residual
  Residual-Control   Outer-Iter.   Inner-Iter.     Column Row Layer    Max.-Head-Change    Column Row Layer    Max.-Flux-Residual            L2-New               L2-Old           Solver-Max-Delh
          0                 1          11            70   19     1      -0.1574623573E+01      70   19    1      -0.4601990504E+05      0.2151237381E+06      0.1008061005E+02     -0.1574623573E+01
          0                 2          10            70   19     1       0.1426726893E+00      70   19    1       0.4582027776E+04      0.2223906655E+05      0.2151237381E+06      0.1426726893E+00
          0                 3           5            13    9     2      -0.1746125529E-02      13    9    2      -0.2850659528E+03      0.3127016311E+03      0.2223906655E+05     -0.1746125529E-02

    ------------------------------------------------
       NWT REQUIRED            3 OUTER ITERATIONS 
       AND A TOTAL OF         26 INNER ITERATIONS.
    ------------------------------------------------

 NO OUTPUT CONTROL FOR STRESS PERIOD   43   TIME STEP    9

 SOLVING FOR HEAD 
                                                   Max.-Head-Change                        Max.-Flux-Residual
  Residual-Control   Outer-Iter.   Inner-Iter.     Column Row Layer    Max.-Head-Change    Column Row Layer    Max.-Flux-Residual            L2-New               L2-Old           Solver-Max-Delh
          0                 1          11            70   19     1      -0.1462709658E+01      70   19    1      -0.4265962855E+05      0.2083426270E+06      0.3127016311E+03     -0.1462709658E+01
          0                 2          10            66   18     1      -0.2020974293E+00      70   19    1       0.4249310763E+04      0.2089473996E+05      0.2083426270E+06     -0.2020974293E+00
          0                 3           5            66   18     1       0.1763104461E-01      66   18    1       0.1536531968E+03      0.1598828450E+03      0.2089473996E+05      0.1763104461E-01
          0                 4           2            25   78     2       0.2988471440E-03      66   18    1       0.5296283849E+00      0.5411368127E+00      0.1598828450E+03      0.2988471440E-03

    ------------------------------------------------
       NWT REQUIRED            4 OUTER ITERATIONS 
       AND A TOTAL OF         28 INNER ITERATIONS.
    ------------------------------------------------

 NO OUTPUT CONTROL FOR STRESS PERIOD   43   TIME STEP   10

 SOLVING FOR HEAD 
                                                   Max.-Head-Change                        Max.-Flux-Residual
  Residual-Control   Outer-Iter.   Inner-Iter.     Column Row Layer    Max.-Head-Change    Column Row Layer    Max.-Flux-Residual            L2-New               L2-Old           Solver-Max-Delh
          0                 1          11            70   19     1      -0.1361397037E+01      70   19    1      -0.3962601328E+05      0.2028585296E+06      0.5411368127E+00     -0.1361397037E+01
          0                 2          10            70   19     1       0.1233849211E+00      70   19    1       0.3948647787E+04      0.2030893891E+05      0.2028585296E+06      0.1233849211E+00
          0                 3           5            18   25     2      -0.1457545639E-02      18   25    2      -0.7834259550E+02      0.8703100769E+02      0.2030893891E+05     -0.1457545639E-02

    ------------------------------------------------
       NWT REQUIRED            3 OUTER ITERATIONS 
       AND A TOTAL OF         26 INNER ITERATIONS.
    ------------------------------------------------

 NO OUTPUT CONTROL FOR STRESS PERIOD   43   TIME STEP   11

 SOLVING FOR HEAD 
                                                   Max.-Head-Change                        Max.-Flux-Residual
  Residual-Control   Outer-Iter.   Inner-Iter.     Column Row Layer    Max.-Head-Change    Column Row Layer    Max.-Flux-Residual            L2-New               L2-Old           Solver-Max-Delh
          0                 1          11            70   19     1      -0.1269976025E+01      70   19    1      -0.3688118895E+05      0.1980649117E+06      0.8703100769E+02     -0.1269976025E+01
          0                 2          10            70   19     1       0.1151665162E+00      70   19    1       0.3676365417E+04      0.1980533519E+05      0.1980649117E+06      0.1151665162E+00
          0                 3           5            25   77     2       0.1268193242E-02      64    7    3      -0.2690988440E+01      0.9472541137E+01      0.1980533519E+05      0.1268193242E-02

    ------------------------------------------------
       NWT REQUIRED            3 OUTER ITERATIONS 
       AND A TOTAL OF         26 INNER ITERATIONS.
    ------------------------------------------------

 OUTPUT CONTROL FOR STRESS PERIOD   43   TIME STEP   12
    SAVE BUDGET
    SAVE HEAD FOR LAYERS:   1  2  3
 UBDSV1 SAVING "         STORAGE" ON UNIT  39 AT TIME STEP 12, STRESS PERIOD  43
 UBDSV2 SAVING "   CONSTANT HEAD" ON UNIT  39 AT TIME STEP 12, STRESS PERIOD  43
 UBDSV1 SAVING "FLOW RIGHT FACE " ON UNIT  39 AT TIME STEP 12, STRESS PERIOD  43
 UBDSV1 SAVING "FLOW FRONT FACE " ON UNIT  39 AT TIME STEP 12, STRESS PERIOD  43
 UBDSV1 SAVING "FLOW LOWER FACE " ON UNIT  39 AT TIME STEP 12, STRESS PERIOD  43
 UBDSV3 SAVING "              ET" ON UNIT  39 AT TIME STEP 12, STRESS PERIOD  43
 UBDSV3 SAVING "        RECHARGE" ON UNIT  39 AT TIME STEP 12, STRESS PERIOD  43

 HEAD WILL BE SAVED ON UNIT   31 AT END OF TIME STEP   12, STRESS PERIOD   43
1
  VOLUMETRIC BUDGET FOR ENTIRE MODEL AT END OF TIME STEP   12, STRESS PERIOD  43
  ------------------------------------------------------------------------------

     CUMULATIVE VOLUMES      L**3       RATES FOR THIS TIME STEP      L**3/T
     ------------------                 ------------------------

           IN:                                      IN:
           ---                                      ---
             STORAGE = 35626024960.0000               STORAGE =     2109211.0000
       CONSTANT HEAD = 14568046592.0000         CONSTANT HEAD =     1094941.8750
               WELLS =   324179520.0000                 WELLS =           0.0000
                  ET =           0.0000                    ET =           0.0000
            RECHARGE =291134210048.0000              RECHARGE =    21511000.0000

            TOTAL IN =341652471808.0000              TOTAL IN =    24715152.0000

          OUT:                                     OUT:
          ----                                     ----
             STORAGE = 86212624384.0000               STORAGE =     6280083.5000
       CONSTANT HEAD =101687574528.0000         CONSTANT HEAD =     7363815.5000
               WELLS =   568146880.0000                 WELLS =        4368.0000
                  ET =153185058816.0000                    ET =    11066912.0000
            RECHARGE =           0.0000              RECHARGE =           0.0000

           TOTAL OUT =341653389312.0000             TOTAL OUT =    24715180.0000

            IN - OUT =     -917504.0000              IN - OUT =         -28.0000

 PERCENT DISCREPANCY =          -0.00     PERCENT DISCREPANCY =          -0.00






         TIME SUMMARY AT END OF TIME STEP   12 IN STRESS PERIOD   43
                    SECONDS     MINUTES      HOURS       DAYS        YEARS
                    -----------------------------------------------------------
   TIME STEP LENGTH 2.62800E+06  43800.      730.00      30.417     8.32763E-02
 STRESS PERIOD TIME 3.15360E+07 5.25600E+05  8760.0      365.00     0.99932    
         TOTAL TIME 1.35700E+09 2.26167E+07 3.76945E+05  15706.      43.001    
1
1
                            STRESS PERIOD NO.   44, LENGTH =   365.0000    
                            -----------------------------------------------

                              NUMBER OF TIME STEPS =    12

                               MULTIPLIER FOR DELT =     1.000

                            INITIAL TIME STEP SIZE =   30.41667    

 WELL NO.  LAYER   ROW   COL   STRESS RATE         
 --------------------------------------------------
      1      1     41     54     -0.7404E+05

      1 WELL 

 REUSING SURF FROM LAST STRESS PERIOD

 REUSING EVTR FROM LAST STRESS PERIOD

 REUSING EXDP FROM LAST STRESS PERIOD



                           RECHARGE
 READING ON UNIT   16 WITH FORMAT: (15F5.0)            


     63 TIME-VARIANT SPECIFIED-HEAD CELLS

 SOLVING FOR HEAD 
                                                   Max.-Head-Change                        Max.-Flux-Residual
  Residual-Control   Outer-Iter.   Inner-Iter.     Column Row Layer    Max.-Head-Change    Column Row Layer    Max.-Flux-Residual            L2-New               L2-Old           Solver-Max-Delh
          0                 1          12            65    2     2       0.1539075730E+03      87   51    1       0.5314886267E+06      0.3115506813E+07      0.9472541137E+01      0.1539075730E+03
          0                 2          11            65    5     2      -0.5244314918E+02      65    5    2      -0.1430759009E+07      0.2659073216E+07      0.3115506813E+07     -0.5244314918E+02
          0                 3           7            66    2     2       0.1441974718E+02      66   18    2       0.5861443401E+05      0.7598345630E+05      0.2659073216E+07      0.1441974718E+02
          0                 4           5            66    2     2       0.2220067634E+01      66   18    2       0.5257194068E+04      0.6018641218E+04      0.7598345630E+05      0.2220067634E+01
          0                 5           4            66    2     2       0.3264142812E+00      66   18    2       0.4724769530E+03      0.5843356098E+03      0.6018641218E+04      0.3264142812E+00
          0                 6           3            66    2     2       0.4795355352E-01      66   18    2       0.4242727797E+02      0.6104486206E+02      0.5843356098E+03      0.4795355352E-01
          0                 7           2            66    2     2       0.7040298575E-02      66   18    2       0.3805719921E+01      0.7057751112E+01      0.6104486206E+02      0.7040298575E-02

    ------------------------------------------------
       NWT REQUIRED            7 OUTER ITERATIONS 
       AND A TOTAL OF         44 INNER ITERATIONS.
    ------------------------------------------------

 NO OUTPUT CONTROL FOR STRESS PERIOD   44   TIME STEP    1

 SOLVING FOR HEAD 
                                                   Max.-Head-Change                        Max.-Flux-Residual
  Residual-Control   Outer-Iter.   Inner-Iter.     Column Row Layer    Max.-Head-Change    Column Row Layer    Max.-Flux-Residual            L2-New               L2-Old           Solver-Max-Delh
          0                 1          12            88   51     1       0.1166580599E+02      92   52    1       0.4340177474E+06      0.2277308474E+07      0.7057751112E+01      0.1166580599E+02
          0                 2          11            77   45     2       0.3824908135E+01      88   51    1      -0.4532154997E+05      0.2068398129E+06      0.2277308474E+07      0.3824908135E+01
          0                 3           6            77   45     2      -0.3478027099E+00      73   14    2       0.1273356751E+05      0.1321060683E+05      0.2068398129E+06     -0.3478027099E+00
          0                 4           4            73   14     2       0.2903129451E-01      73   14    2       0.1144979950E+04      0.1184010486E+04      0.1321060683E+05      0.2903129451E-01
          0                 5           3            73   14     2       0.2610022270E-02      73   14    2       0.1029253310E+03      0.1064343701E+03      0.1184010486E+04      0.2610022270E-02

    ------------------------------------------------
       NWT REQUIRED            5 OUTER ITERATIONS 
       AND A TOTAL OF         36 INNER ITERATIONS.
    ------------------------------------------------

 NO OUTPUT CONTROL FOR STRESS PERIOD   44   TIME STEP    2

 SOLVING FOR HEAD 
                                                   Max.-Head-Change                        Max.-Flux-Residual
  Residual-Control   Outer-Iter.   Inner-Iter.     Column Row Layer    Max.-Head-Change    Column Row Layer    Max.-Flux-Residual            L2-New               L2-Old           Solver-Max-Delh
          0                 1          12            92   52     1       0.1122937897E+02      92   52    1       0.4012086643E+06      0.1923318353E+07      0.1064343701E+03      0.1122937897E+02
          0                 2          11            73   14     2       0.4731675596E+01      73   14    2       0.4915817749E+05      0.1987783374E+06      0.1923318353E+07      0.4731675596E+01
          0                 3           6            73   14     2      -0.3969109942E+00      73   14    2      -0.4479423947E+04      0.4869061419E+04      0.1987783374E+06     -0.3969109942E+00
          0                 4           4            87   54     3       0.3826841154E-03      78   49    1       0.2088561427E+02      0.2364436975E+02      0.4869061419E+04      0.3826841154E-03

    ------------------------------------------------
       NWT REQUIRED            4 OUTER ITERATIONS 
       AND A TOTAL OF         33 INNER ITERATIONS.
    ------------------------------------------------

 NO OUTPUT CONTROL FOR STRESS PERIOD   44   TIME STEP    3

 SOLVING FOR HEAD 
                                                   Max.-Head-Change                        Max.-Flux-Residual
  Residual-Control   Outer-Iter.   Inner-Iter.     Column Row Layer    Max.-Head-Change    Column Row Layer    Max.-Flux-Residual            L2-New               L2-Old           Solver-Max-Delh
          0                 1          12            92   52     1       0.1040911859E+02      92   52    1       0.3730251807E+06      0.1726845043E+07      0.2364436975E+02      0.1040911859E+02
          0                 2          11            92   52     1      -0.9758728459E+00      92   52    1      -0.3887684777E+05      0.1715156694E+06      0.1726845043E+07     -0.9758728459E+00
          0                 3           5            87   53     1      -0.2208320774E-01      78   49    1      -0.5336481111E+03      0.5498759716E+03      0.1715156694E+06     -0.2208320774E-01
          0                 4           2            87   53     1      -0.5748291789E-03      91   51    1       0.1231238946E+01      0.3086679825E+01      0.5498759716E+03     -0.5748291789E-03

    ------------------------------------------------
       NWT REQUIRED            4 OUTER ITERATIONS 
       AND A TOTAL OF         30 INNER ITERATIONS.
    ------------------------------------------------

 NO OUTPUT CONTROL FOR STRESS PERIOD   44   TIME STEP    4

 SOLVING FOR HEAD 
                                                   Max.-Head-Change                        Max.-Flux-Residual
  Residual-Control   Outer-Iter.   Inner-Iter.     Column Row Layer    Max.-Head-Change    Column Row Layer    Max.-Flux-Residual            L2-New               L2-Old           Solver-Max-Delh
          0                 1          12            92   52     1       0.9646918135E+01      92   52    1       0.3460200593E+06      0.1591516858E+07      0.3086679825E+01      0.9646918135E+01
          0                 2          10            92   52     1      -0.9033749452E+00      92   52    1      -0.3580906141E+05      0.1600373556E+06      0.1591516858E+07     -0.9033749452E+00
          0                 3           6            78   48     1      -0.5811671356E-02      78   48    1      -0.2759044466E+03      0.3704741417E+03      0.1600373556E+06     -0.5811671356E-02

    ------------------------------------------------
       NWT REQUIRED            3 OUTER ITERATIONS 
       AND A TOTAL OF         28 INNER ITERATIONS.
    ------------------------------------------------

 NO OUTPUT CONTROL FOR STRESS PERIOD   44   TIME STEP    5

 SOLVING FOR HEAD 
                                                   Max.-Head-Change                        Max.-Flux-Residual
  Residual-Control   Outer-Iter.   Inner-Iter.     Column Row Layer    Max.-Head-Change    Column Row Layer    Max.-Flux-Residual            L2-New               L2-Old           Solver-Max-Delh
          0                 1          12            92   52     1       0.8932661906E+01      92   52    1       0.3207415159E+06      0.1491111334E+07      0.3704741417E+03      0.8932661906E+01
          0                 2          10            92   52     1      -0.8298091200E+00      92   52    1      -0.3302075259E+05      0.1497822307E+06      0.1491111334E+07     -0.8298091200E+00
          0                 3           5            85   53     1      -0.2918265171E-02      61   64    1       0.1459643784E+02      0.4478215033E+02      0.1497822307E+06     -0.2918265171E-02

    ------------------------------------------------
       NWT REQUIRED            3 OUTER ITERATIONS 
       AND A TOTAL OF         27 INNER ITERATIONS.
    ------------------------------------------------

 NO OUTPUT CONTROL FOR STRESS PERIOD   44   TIME STEP    6

 SOLVING FOR HEAD 
                                                   Max.-Head-Change                        Max.-Flux-Residual
  Residual-Control   Outer-Iter.   Inner-Iter.     Column Row Layer    Max.-Head-Change    Column Row Layer    Max.-Flux-Residual            L2-New               L2-Old           Solver-Max-Delh
          0                 1          12            92   52     1       0.8283002091E+01      92   52    1       0.2972548731E+06      0.1410922357E+07      0.4478215033E+02      0.8283002091E+01
          0                 2          10            92   52     1      -0.7665056098E+00      83   52    1      -0.3217730782E+05      0.1449287494E+06      0.1410922357E+07     -0.7665056098E+00
          0                 3           6            57   96     2       0.1390153045E-01      37   21    2      -0.1909126705E+03      0.3442319413E+03      0.1449287494E+06      0.1390153045E-01
          0                 4           3            25   78     2       0.3129937840E-03      68   48    1       0.4964537136E+01      0.7116622214E+01      0.3442319413E+03      0.3129937840E-03

    ------------------------------------------------
       NWT REQUIRED            4 OUTER ITERATIONS 
       AND A TOTAL OF         31 INNER ITERATIONS.
    ------------------------------------------------

 NO OUTPUT CONTROL FOR STRESS PERIOD   44   TIME STEP    7

 SOLVING FOR HEAD 
                                                   Max.-Head-Change                        Max.-Flux-Residual
  Residual-Control   Outer-Iter.   Inner-Iter.     Column Row Layer    Max.-Head-Change    Column Row Layer    Max.-Flux-Residual            L2-New               L2-Old           Solver-Max-Delh
          0                 1          12            92   52     1       0.7696176266E+01      92   52    1       0.2757584685E+06      0.1344479205E+07      0.7116622214E+01      0.7696176266E+01
          0                 2          10            85   53     1      -0.2335927739E+01      85   53    1      -0.6822629584E+05      0.1510270102E+06      0.1344479205E+07     -0.2335927739E+01
          0                 3           5            88   53     1      -0.9511792990E-02      21   35    2      -0.8860271459E+02      0.1194374709E+03      0.1510270102E+06     -0.9511792990E-02

    ------------------------------------------------
       NWT REQUIRED            3 OUTER ITERATIONS 
       AND A TOTAL OF         27 INNER ITERATIONS.
    ------------------------------------------------

 NO OUTPUT CONTROL FOR STRESS PERIOD   44   TIME STEP    8

 SOLVING FOR HEAD 
                                                   Max.-Head-Change                        Max.-Flux-Residual
  Residual-Control   Outer-Iter.   Inner-Iter.     Column Row Layer    Max.-Head-Change    Column Row Layer    Max.-Flux-Residual            L2-New               L2-Old           Solver-Max-Delh
          0                 1          12            92   52     1       0.7174312687E+01      92   52    1       0.2563351743E+06      0.1288767339E+07      0.1194374709E+03      0.7174312687E+01
          0                 2          10            84   53     1      -0.8829991727E+00      92   52    1      -0.2604773934E+05      0.1341943804E+06      0.1288767339E+07     -0.8829991727E+00
          0                 3           5            70   18     2      -0.5918990166E-02      71   18    2       0.5163366235E+02      0.7902834332E+02      0.1341943804E+06     -0.5918990166E-02

    ------------------------------------------------
       NWT REQUIRED            3 OUTER ITERATIONS 
       AND A TOTAL OF         27 INNER ITERATIONS.
    ------------------------------------------------

 NO OUTPUT CONTROL FOR STRESS PERIOD   44   TIME STEP    9

 SOLVING FOR HEAD 
                                                   Max.-Head-Change                        Max.-Flux-Residual
  Residual-Control   Outer-Iter.   Inner-Iter.     Column Row Layer    Max.-Head-Change    Column Row Layer    Max.-Flux-Residual            L2-New               L2-Old           Solver-Max-Delh
          0                 1          12            92   52     1       0.6714056680E+01      92   52    1       0.2390270752E+06      0.1242384564E+07      0.7902834332E+02      0.6714056680E+01
          0                 2          10            92   52     1      -0.6157694786E+00      92   52    1      -0.2420711046E+05      0.1252338168E+06      0.1242384564E+07     -0.6157694786E+00
          0                 3           5            66    2     2      -0.2013423031E-02      80   49    1      -0.9755478073E+02      0.1056121380E+03      0.1252338168E+06     -0.2013423031E-02

    ------------------------------------------------
       NWT REQUIRED            3 OUTER ITERATIONS 
       AND A TOTAL OF         27 INNER ITERATIONS.
    ------------------------------------------------

 NO OUTPUT CONTROL FOR STRESS PERIOD   44   TIME STEP   10

 SOLVING FOR HEAD 
                                                   Max.-Head-Change                        Max.-Flux-Residual
  Residual-Control   Outer-Iter.   Inner-Iter.     Column Row Layer    Max.-Head-Change    Column Row Layer    Max.-Flux-Residual            L2-New               L2-Old           Solver-Max-Delh
          0                 1          12            92   52     1       0.6311312827E+01      92   52    1       0.2237581125E+06      0.1203248009E+07      0.1056121380E+03      0.6311312827E+01
          0                 2          10            92   52     1      -0.5775387610E+00      92   52    1      -0.2259464560E+05      0.1208322403E+06      0.1203248009E+07     -0.5775387610E+00
          0                 3           5            52   47     2      -0.9774846015E-02      52   47    2      -0.2637243322E+03      0.2688841809E+03      0.1208322403E+06     -0.9774846015E-02

    ------------------------------------------------
       NWT REQUIRED            3 OUTER ITERATIONS 
       AND A TOTAL OF         27 INNER ITERATIONS.
    ------------------------------------------------

 NO OUTPUT CONTROL FOR STRESS PERIOD   44   TIME STEP   11

 SOLVING FOR HEAD 
                                                   Max.-Head-Change                        Max.-Flux-Residual
  Residual-Control   Outer-Iter.   Inner-Iter.     Column Row Layer    Max.-Head-Change    Column Row Layer    Max.-Flux-Residual            L2-New               L2-Old           Solver-Max-Delh
          0                 1          12            92   52     1       0.5960953590E+01      92   52    1       0.2103914545E+06      0.1169566325E+07      0.2688841809E+03      0.5960953590E+01
          0                 2          10            91   52     1      -0.5374136819E+00      92   52    1      -0.2119187110E+05      0.1163677031E+06      0.1169566325E+07     -0.5374136819E+00
          0                 3           6            69   19     1      -0.8419573890E-01      69   19    1      -0.7219553124E+03      0.8008677868E+03      0.1163677031E+06     -0.8419573890E-01
          0                 4           3            69   48     1       0.4483183876E-03      69   48    1       0.2702457589E+02      0.2719579929E+02      0.8008677868E+03      0.4483183876E-03

    ------------------------------------------------
       NWT REQUIRED            4 OUTER ITERATIONS 
       AND A TOTAL OF         31 INNER ITERATIONS.
    ------------------------------------------------

 OUTPUT CONTROL FOR STRESS PERIOD   44   TIME STEP   12
    SAVE BUDGET
 UBDSV1 SAVING "         STORAGE" ON UNIT  39 AT TIME STEP 12, STRESS PERIOD  44
 UBDSV2 SAVING "   CONSTANT HEAD" ON UNIT  39 AT TIME STEP 12, STRESS PERIOD  44
 UBDSV1 SAVING "FLOW RIGHT FACE " ON UNIT  39 AT TIME STEP 12, STRESS PERIOD  44
 UBDSV1 SAVING "FLOW FRONT FACE " ON UNIT  39 AT TIME STEP 12, STRESS PERIOD  44
 UBDSV1 SAVING "FLOW LOWER FACE " ON UNIT  39 AT TIME STEP 12, STRESS PERIOD  44
 UBDSV3 SAVING "              ET" ON UNIT  39 AT TIME STEP 12, STRESS PERIOD  44
 UBDSV3 SAVING "        RECHARGE" ON UNIT  39 AT TIME STEP 12, STRESS PERIOD  44
1
  VOLUMETRIC BUDGET FOR ENTIRE MODEL AT END OF TIME STEP   12, STRESS PERIOD  44
  ------------------------------------------------------------------------------

     CUMULATIVE VOLUMES      L**3       RATES FOR THIS TIME STEP      L**3/T
     ------------------                 ------------------------

           IN:                                      IN:
           ---                                      ---
             STORAGE = 35796496384.0000               STORAGE =      249190.2344
       CONSTANT HEAD = 14901185536.0000         CONSTANT HEAD =      866343.2500
               WELLS =   324179520.0000                 WELLS =           0.0000
                  ET =           0.0000                    ET =           0.0000
            RECHARGE =314783006720.0000              RECHARGE =    64791012.0000

            TOTAL IN =365804879872.0000              TOTAL IN =    65906544.0000

          OUT:                                     OUT:
          ----                                     ----
             STORAGE =101340102656.0000               STORAGE =    38933576.0000
       CONSTANT HEAD =104507482112.0000         CONSTANT HEAD =     7894870.5000
               WELLS =   595171264.0000                 WELLS =       74040.0000
                  ET =159362990080.0000                    ET =    19004074.0000
            RECHARGE =           0.0000              RECHARGE =           0.0000

           TOTAL OUT =365805764608.0000             TOTAL OUT =    65906560.0000

            IN - OUT =     -884736.0000              IN - OUT =         -16.0000

 PERCENT DISCREPANCY =          -0.00     PERCENT DISCREPANCY =          -0.00






         TIME SUMMARY AT END OF TIME STEP   12 IN STRESS PERIOD   44
                    SECONDS     MINUTES      HOURS       DAYS        YEARS
                    -----------------------------------------------------------
   TIME STEP LENGTH 2.62800E+06  43800.      730.00      30.417     8.32763E-02
 STRESS PERIOD TIME 3.15360E+07 5.25600E+05  8760.0      365.00     0.99932    
         TOTAL TIME 1.38854E+09 2.31423E+07 3.85705E+05  16071.      44.000    
1
1
                            STRESS PERIOD NO.   45, LENGTH =   366.0000    
                            -----------------------------------------------

                              NUMBER OF TIME STEPS =    12

                               MULTIPLIER FOR DELT =     1.000

                            INITIAL TIME STEP SIZE =   30.50000    

 WELL NO.  LAYER   ROW   COL   STRESS RATE         
 --------------------------------------------------
      1      1     41     55     -0.6412E+05
      2      2     41     55      -8743.    

      2 WELLS

 REUSING SURF FROM LAST STRESS PERIOD

 REUSING EVTR FROM LAST STRESS PERIOD

 REUSING EXDP FROM LAST STRESS PERIOD



                           RECHARGE
 READING ON UNIT   16 WITH FORMAT: (15F5.0)            


     63 TIME-VARIANT SPECIFIED-HEAD CELLS

 SOLVING FOR HEAD 
                                                   Max.-Head-Change                        Max.-Flux-Residual
  Residual-Control   Outer-Iter.   Inner-Iter.     Column Row Layer    Max.-Head-Change    Column Row Layer    Max.-Flux-Residual            L2-New               L2-Old           Solver-Max-Delh
          0                 1          11            65    1     2      -0.4962693211E+02      67   47    1      -0.3830445186E+06      0.1920555273E+07      0.2719579929E+02     -0.4962693211E+02
          0                 2          10            51  103     3       0.2871932794E+02      51  103    3       0.6892450209E+06      0.7708901603E+06      0.1920555273E+07      0.2871932794E+02
          0                 3           6            66    3     2       0.1720252701E+00      51  103    3      -0.1384615314E+04      0.1925363499E+04      0.7708901603E+06      0.1720252701E+00
          0                 4           4            66    3     2       0.9810630245E-02      51  103    3      -0.1226873902E+03      0.1246110701E+03      0.1925363499E+04      0.9810630245E-02

    ------------------------------------------------
       NWT REQUIRED            4 OUTER ITERATIONS 
       AND A TOTAL OF         31 INNER ITERATIONS.
    ------------------------------------------------

 NO OUTPUT CONTROL FOR STRESS PERIOD   45   TIME STEP    1

 SOLVING FOR HEAD 
                                                   Max.-Head-Change                        Max.-Flux-Residual
  Residual-Control   Outer-Iter.   Inner-Iter.     Column Row Layer    Max.-Head-Change    Column Row Layer    Max.-Flux-Residual            L2-New               L2-Old           Solver-Max-Delh
          0                 1          11            69   47     1      -0.5259946587E+01      67   47    1      -0.2537244067E+06      0.1226152880E+07      0.1246110701E+03     -0.5259946587E+01
          0                 2          10            55   98     2      -0.5354592504E+01      64   45    1       0.3108760677E+05      0.1257975928E+06      0.1226152880E+07     -0.5354592504E+01
          0                 3           6            55   98     2       0.4551097256E+00      55   98    2       0.2001316750E+04      0.2082073450E+04      0.1257975928E+06      0.4551097256E+00
          0                 4           3            55   98     2       0.2751517833E-02      55   98    2       0.1196454135E+02      0.1348012944E+02      0.2082073450E+04      0.2751517833E-02

    ------------------------------------------------
       NWT REQUIRED            4 OUTER ITERATIONS 
       AND A TOTAL OF         30 INNER ITERATIONS.
    ------------------------------------------------

 NO OUTPUT CONTROL FOR STRESS PERIOD   45   TIME STEP    2

 SOLVING FOR HEAD 
                                                   Max.-Head-Change                        Max.-Flux-Residual
  Residual-Control   Outer-Iter.   Inner-Iter.     Column Row Layer    Max.-Head-Change    Column Row Layer    Max.-Flux-Residual            L2-New               L2-Old           Solver-Max-Delh
          0                 1          11            69   47     1      -0.4494598339E+01      69   47    1      -0.1864269773E+06      0.9588549341E+06      0.1348012944E+02     -0.4494598339E+01
          0                 2          10            49   43     2       0.5390843129E+00      69   47    1       0.1810440408E+05      0.9553711351E+05      0.9588549341E+06      0.5390843129E+00
          0                 3           6            49   43     2      -0.4901752882E-01      49   43    2      -0.6480891068E+03      0.6824380714E+03      0.9553711351E+05     -0.4901752882E-01
          0                 4           2            25   78     2       0.3252889765E-03      67   47    1      -0.4002518803E+00      0.1194686939E+01      0.6824380714E+03      0.3252889765E-03

    ------------------------------------------------
       NWT REQUIRED            4 OUTER ITERATIONS 
       AND A TOTAL OF         29 INNER ITERATIONS.
    ------------------------------------------------

 NO OUTPUT CONTROL FOR STRESS PERIOD   45   TIME STEP    3

 SOLVING FOR HEAD 
                                                   Max.-Head-Change                        Max.-Flux-Residual
  Residual-Control   Outer-Iter.   Inner-Iter.     Column Row Layer    Max.-Head-Change    Column Row Layer    Max.-Flux-Residual            L2-New               L2-Old           Solver-Max-Delh
          0                 1          11            75   48     1      -0.4023601976E+01      75   48    1      -0.1638800803E+06      0.8037197298E+06      0.1194686939E+01     -0.4023601976E+01
          0                 2          10            65    2     2      -0.2769464173E+02      67   46    1       0.1940899747E+05      0.8344205798E+05      0.8037197298E+06     -0.2769464173E+02
          0                 3           5            65    2     2       0.8812811203E+00      65    2    3      -0.1091446961E+04      0.1408200409E+04      0.8344205798E+05      0.8812811203E+00
          0                 4           3            65    2     2       0.5141099620E-01      57  121    2       0.3663596910E+02      0.4346435871E+02      0.1408200409E+04      0.5141099620E-01
          0                 5           2            65    2     2       0.2995566634E-02      57  121    2       0.3293564847E+01      0.4093741510E+01      0.4346435871E+02      0.2995566634E-02

    ------------------------------------------------
       NWT REQUIRED            5 OUTER ITERATIONS 
       AND A TOTAL OF         31 INNER ITERATIONS.
    ------------------------------------------------

 NO OUTPUT CONTROL FOR STRESS PERIOD   45   TIME STEP    4

 SOLVING FOR HEAD 
                                                   Max.-Head-Change                        Max.-Flux-Residual
  Residual-Control   Outer-Iter.   Inner-Iter.     Column Row Layer    Max.-Head-Change    Column Row Layer    Max.-Flux-Residual            L2-New               L2-Old           Solver-Max-Delh
          0                 1          11            65    2     2      -0.7303283826E+02      75   48    1      -0.1511023594E+06      0.6975780088E+06      0.4093741510E+01     -0.7303283826E+02
          0                 2          10            65    2     2       0.3363378498E+01      75   48    1       0.1502553102E+05      0.7100801334E+05      0.6975780088E+06      0.3363378498E+01
          0                 3           6            65    2     2       0.1827217255E+00      55   97    2       0.3755342708E+03      0.4811973714E+03      0.7100801334E+05      0.1827217255E+00
          0                 4           2            65    2     2       0.9972001416E-02      65    2    2       0.4586182354E+01      0.5441277831E+01      0.4811973714E+03      0.9972001416E-02

    ------------------------------------------------
       NWT REQUIRED            4 OUTER ITERATIONS 
       AND A TOTAL OF         29 INNER ITERATIONS.
    ------------------------------------------------

 NO OUTPUT CONTROL FOR STRESS PERIOD   45   TIME STEP    5

 SOLVING FOR HEAD 
                                                   Max.-Head-Change                        Max.-Flux-Residual
  Residual-Control   Outer-Iter.   Inner-Iter.     Column Row Layer    Max.-Head-Change    Column Row Layer    Max.-Flux-Residual            L2-New               L2-Old           Solver-Max-Delh
          0                 1          11            55   97     2      -0.5425366383E+01      75   48    1      -0.1411214281E+06      0.6201307696E+06      0.5441277831E+01     -0.5425366383E+01
          0                 2          10            66    1     2      -0.2051226780E+02      75   48    1       0.1403621748E+05      0.6195528509E+05      0.6201307696E+06     -0.2051226780E+02
          0                 3           5            66    1     2       0.5600093572E+00      66    1    2       0.2247421064E+03      0.2775921383E+03      0.6195528509E+05      0.5600093572E+00
          0                 4           2            66    1     2       0.3546669655E-01      66    1    2       0.1422329885E+02      0.1452429313E+02      0.2775921383E+03      0.3546669655E-01
          0                 5           2            66    1     2       0.2243125152E-02      66    1    2       0.8994861639E+00      0.9259003603E+00      0.1452429313E+02      0.2243125152E-02

    ------------------------------------------------
       NWT REQUIRED            5 OUTER ITERATIONS 
       AND A TOTAL OF         30 INNER ITERATIONS.
    ------------------------------------------------

 NO OUTPUT CONTROL FOR STRESS PERIOD   45   TIME STEP    6

 SOLVING FOR HEAD 
                                                   Max.-Head-Change                        Max.-Flux-Residual
  Residual-Control   Outer-Iter.   Inner-Iter.     Column Row Layer    Max.-Head-Change    Column Row Layer    Max.-Flux-Residual            L2-New               L2-Old           Solver-Max-Delh
          0                 1          11            66    1     2      -0.4584709755E+02      75   48    1      -0.1318301006E+06      0.5615494053E+06      0.9259003603E+00     -0.4584709755E+02
          0                 2          10            56   98     2      -0.5020682632E+01      56   98    2      -0.1553173524E+05      0.5822049671E+05      0.5615494053E+06     -0.5020682632E+01
          0                 3           5            56   98     2       0.4168618399E+00      56   98    2       0.1420698755E+04      0.1442123207E+04      0.5822049671E+05      0.4168618399E+00
          0                 4           3            66    1     2       0.4960639702E-02      56   98    2       0.1094831937E+02      0.1169835586E+02      0.1442123207E+04      0.4960639702E-02

    ------------------------------------------------
       NWT REQUIRED            4 OUTER ITERATIONS 
       AND A TOTAL OF         29 INNER ITERATIONS.
    ------------------------------------------------

 NO OUTPUT CONTROL FOR STRESS PERIOD   45   TIME STEP    7

 SOLVING FOR HEAD 
                                                   Max.-Head-Change                        Max.-Flux-Residual
  Residual-Control   Outer-Iter.   Inner-Iter.     Column Row Layer    Max.-Head-Change    Column Row Layer    Max.-Flux-Residual            L2-New               L2-Old           Solver-Max-Delh
          0                 1          11            75   48     1      -0.3077119471E+01      75   48    1      -0.1232283879E+06      0.5157513041E+06      0.1169835586E+02     -0.3077119471E+01
          0                 2          10            80   53     2       0.3817218816E+00      75   48    1       0.1226430675E+05      0.5193764796E+05      0.5157513041E+06      0.3817218816E+00
          0                 3           6            80   53     2      -0.3470321061E-01      80   53    2      -0.5200094364E+03      0.5772954185E+03      0.5193764796E+05     -0.3470321061E-01
          0                 4           2            25   78     2       0.3389690954E-03      69   47    1      -0.8392873034E-01      0.2328750187E+00      0.5772954185E+03      0.3389690954E-03

    ------------------------------------------------
       NWT REQUIRED            4 OUTER ITERATIONS 
       AND A TOTAL OF         29 INNER ITERATIONS.
    ------------------------------------------------

 NO OUTPUT CONTROL FOR STRESS PERIOD   45   TIME STEP    8

 SOLVING FOR HEAD 
                                                   Max.-Head-Change                        Max.-Flux-Residual
  Residual-Control   Outer-Iter.   Inner-Iter.     Column Row Layer    Max.-Head-Change    Column Row Layer    Max.-Flux-Residual            L2-New               L2-Old           Solver-Max-Delh
          0                 1          11            75   48     1      -0.2880787766E+01      75   48    1      -0.1152711520E+06      0.4789441476E+06      0.2328750187E+00     -0.2880787766E+01
          0                 2          10            75   48     1       0.2609625083E+00      75   48    1       0.1147561097E+05      0.4848182293E+05      0.4789441476E+06      0.2609625083E+00
          0                 3           5            52  116     2      -0.8837921671E-02      52  116    2      -0.2254716418E+03      0.2515257741E+03      0.4848182293E+05     -0.8837921671E-02

    ------------------------------------------------
       NWT REQUIRED            3 OUTER ITERATIONS 
       AND A TOTAL OF         26 INNER ITERATIONS.
    ------------------------------------------------

 NO OUTPUT CONTROL FOR STRESS PERIOD   45   TIME STEP    9

 SOLVING FOR HEAD 
                                                   Max.-Head-Change                        Max.-Flux-Residual
  Residual-Control   Outer-Iter.   Inner-Iter.     Column Row Layer    Max.-Head-Change    Column Row Layer    Max.-Flux-Residual            L2-New               L2-Old           Solver-Max-Delh
          0                 1          11            75   48     1      -0.2699201510E+01      75   48    1      -0.1079124040E+06      0.4483963689E+06      0.2515257741E+03     -0.2699201510E+01
          0                 2          10            69   19     1      -0.6411293294E+00      75   48    1       0.1074591226E+05      0.4569429843E+05      0.4483963689E+06     -0.6411293294E+00
          0                 3           5            69   19     1       0.5605806421E-01      69   19    1       0.4806450913E+03      0.4920978845E+03      0.4569429843E+05      0.5605806421E-01
          0                 4           2            25   78     2       0.3478845217E-03      69   19    1       0.1691067562E+01      0.1714961362E+01      0.4920978845E+03      0.3478845217E-03

    ------------------------------------------------
       NWT REQUIRED            4 OUTER ITERATIONS 
       AND A TOTAL OF         28 INNER ITERATIONS.
    ------------------------------------------------

 NO OUTPUT CONTROL FOR STRESS PERIOD   45   TIME STEP   10

 SOLVING FOR HEAD 
                                                   Max.-Head-Change                        Max.-Flux-Residual
  Residual-Control   Outer-Iter.   Inner-Iter.     Column Row Layer    Max.-Head-Change    Column Row Layer    Max.-Flux-Residual            L2-New               L2-Old           Solver-Max-Delh
          0                 1          11            75   48     1      -0.2530669774E+01      75   48    1      -0.1011011158E+06      0.4227127983E+06      0.1714961362E+01     -0.2530669774E+01
          0                 2          10            75   48     1       0.2293438867E+00      75   48    1       0.1007008911E+05      0.4225662969E+05      0.4227127983E+06      0.2293438867E+00
          0                 3           5            25   77     2       0.1474743247E-02      73   15    1       0.3330371078E+01      0.1228122055E+02      0.4225662969E+05      0.1474743247E-02

    ------------------------------------------------
       NWT REQUIRED            3 OUTER ITERATIONS 
       AND A TOTAL OF         26 INNER ITERATIONS.
    ------------------------------------------------

 NO OUTPUT CONTROL FOR STRESS PERIOD   45   TIME STEP   11

 SOLVING FOR HEAD 
                                                   Max.-Head-Change                        Max.-Flux-Residual
  Residual-Control   Outer-Iter.   Inner-Iter.     Column Row Layer    Max.-Head-Change    Column Row Layer    Max.-Flux-Residual            L2-New               L2-Old           Solver-Max-Delh
          0                 1          11            75   48     1      -0.2374515095E+01      75   48    1      -0.9479065014E+05      0.4010421174E+06      0.1228122055E+02     -0.2374515095E+01
          0                 2          10            65    6     2       0.1081734742E+01      75   48    1       0.9443707070E+04      0.4003770325E+05      0.4010421174E+06      0.1081734742E+01
          0                 3           5            65    6     2      -0.9237123884E+00      65    6    2      -0.2638562389E+05      0.2638614727E+05      0.4003770325E+05     -0.9237123884E+00
          0                 4           2            65    6     2      -0.8351287261E-01      65    6    2      -0.2384638170E+04      0.2385349440E+04      0.2638614727E+05     -0.8351287261E-01
          0                 5           2            65    6     2      -0.7511742787E-02      65    6    2      -0.2144537881E+03      0.2145215409E+03      0.2385349440E+04     -0.7511742787E-02

    ------------------------------------------------
       NWT REQUIRED            5 OUTER ITERATIONS 
       AND A TOTAL OF         30 INNER ITERATIONS.
    ------------------------------------------------

 OUTPUT CONTROL FOR STRESS PERIOD   45   TIME STEP   12
    SAVE BUDGET
 UBDSV1 SAVING "         STORAGE" ON UNIT  39 AT TIME STEP 12, STRESS PERIOD  45
 UBDSV2 SAVING "   CONSTANT HEAD" ON UNIT  39 AT TIME STEP 12, STRESS PERIOD  45
 UBDSV1 SAVING "FLOW RIGHT FACE " ON UNIT  39 AT TIME STEP 12, STRESS PERIOD  45
 UBDSV1 SAVING "FLOW FRONT FACE " ON UNIT  39 AT TIME STEP 12, STRESS PERIOD  45
 UBDSV1 SAVING "FLOW LOWER FACE " ON UNIT  39 AT TIME STEP 12, STRESS PERIOD  45
 UBDSV3 SAVING "              ET" ON UNIT  39 AT TIME STEP 12, STRESS PERIOD  45
 UBDSV3 SAVING "        RECHARGE" ON UNIT  39 AT TIME STEP 12, STRESS PERIOD  45
1
  VOLUMETRIC BUDGET FOR ENTIRE MODEL AT END OF TIME STEP   12, STRESS PERIOD  45
  ------------------------------------------------------------------------------

     CUMULATIVE VOLUMES      L**3       RATES FOR THIS TIME STEP      L**3/T
     ------------------                 ------------------------

           IN:                                      IN:
           ---                                      ---
             STORAGE = 38446583808.0000               STORAGE =     4095837.7500
       CONSTANT HEAD = 15253138432.0000         CONSTANT HEAD =     1002442.2500
               WELLS =   324179520.0000                 WELLS =           0.0000
                  ET =           0.0000                    ET =           0.0000
            RECHARGE =326053363712.0000              RECHARGE =    30792824.0000

            TOTAL IN =380077277184.0000              TOTAL IN =    35891104.0000

          OUT:                                     OUT:
          ----                                     ----
             STORAGE =105977208832.0000               STORAGE =     9841412.0000
       CONSTANT HEAD =107342307328.0000         CONSTANT HEAD =     7704487.5000
               WELLS =   621837760.0000                 WELLS =       72859.0000
                  ET =166136627200.0000                    ET =    18272378.0000
            RECHARGE =           0.0000              RECHARGE =           0.0000

           TOTAL OUT =380077998080.0000             TOTAL OUT =    35891136.0000

            IN - OUT =     -720896.0000              IN - OUT =         -32.0000

 PERCENT DISCREPANCY =          -0.00     PERCENT DISCREPANCY =          -0.00






         TIME SUMMARY AT END OF TIME STEP   12 IN STRESS PERIOD   45
                    SECONDS     MINUTES      HOURS       DAYS        YEARS
                    -----------------------------------------------------------
   TIME STEP LENGTH 2.63520E+06  43920.      732.00      30.500     8.35044E-02
 STRESS PERIOD TIME 3.16224E+07 5.27040E+05  8784.0      366.00      1.0021    
         TOTAL TIME 1.42016E+09 2.36694E+07 3.94489E+05  16437.      45.002    
1
1
                            STRESS PERIOD NO.   46, LENGTH =   365.0000    
                            -----------------------------------------------

                              NUMBER OF TIME STEPS =    12

                               MULTIPLIER FOR DELT =     1.000

                            INITIAL TIME STEP SIZE =   30.41667    

 WELL NO.  LAYER   ROW   COL   STRESS RATE         
 --------------------------------------------------
      1      1     52     60     -0.1267E+05

      1 WELL 

 REUSING SURF FROM LAST STRESS PERIOD

 REUSING EVTR FROM LAST STRESS PERIOD

 REUSING EXDP FROM LAST STRESS PERIOD



                           RECHARGE
 READING ON UNIT   16 WITH FORMAT: (15F5.0)            


     63 TIME-VARIANT SPECIFIED-HEAD CELLS

 SOLVING FOR HEAD 
                                                   Max.-Head-Change                        Max.-Flux-Residual
  Residual-Control   Outer-Iter.   Inner-Iter.     Column Row Layer    Max.-Head-Change    Column Row Layer    Max.-Flux-Residual            L2-New               L2-Old           Solver-Max-Delh
          0                 1          11            92   77     2      -0.2742745393E+02      77   48    1      -0.2106570066E+06      0.8435432970E+06      0.2145215409E+03     -0.2742745393E+02
          0                 2          10            65    6     2      -0.2758704907E+02      82   51    1       0.2821205217E+05      0.8799710410E+05      0.8435432970E+06     -0.2758704907E+02
          0                 3           5            65    6     2       0.2765067797E+01      65    6    2       0.1924528492E+04      0.2689235165E+04      0.8799710410E+05      0.2765067797E+01
          0                 4           3            65    6     2       0.1023864199E+00      65    7    2      -0.7797124926E+02      0.1059793484E+03      0.2689235165E+04      0.1023864199E+00
          0                 5           2            65    6     2       0.3768836906E-02      65    6    3       0.6802461892E+01      0.9695774679E+01      0.1059793484E+03      0.3768836906E-02

    ------------------------------------------------
       NWT REQUIRED            5 OUTER ITERATIONS 
       AND A TOTAL OF         31 INNER ITERATIONS.
    ------------------------------------------------

 NO OUTPUT CONTROL FOR STRESS PERIOD   46   TIME STEP    1

 SOLVING FOR HEAD 
                                                   Max.-Head-Change                        Max.-Flux-Residual
  Residual-Control   Outer-Iter.   Inner-Iter.     Column Row Layer    Max.-Head-Change    Column Row Layer    Max.-Flux-Residual            L2-New               L2-Old           Solver-Max-Delh
          0                 1          11            77   48     1      -0.4391034102E+01      77   48    1      -0.1855021441E+06      0.6888077384E+06      0.9695774679E+01     -0.4391034102E+01
          0                 2          10            77   48     1       0.3945770042E+00      77   48    1       0.1826709234E+05      0.6832431726E+05      0.6888077384E+06      0.3945770042E+00
          0                 3           5            84   64     2      -0.8708654127E-02      18   74    3      -0.2183523674E+03      0.2722492156E+03      0.6832431726E+05     -0.8708654127E-02

    ------------------------------------------------
       NWT REQUIRED            3 OUTER ITERATIONS 
       AND A TOTAL OF         26 INNER ITERATIONS.
    ------------------------------------------------

 NO OUTPUT CONTROL FOR STRESS PERIOD   46   TIME STEP    2

 SOLVING FOR HEAD 
                                                   Max.-Head-Change                        Max.-Flux-Residual
  Residual-Control   Outer-Iter.   Inner-Iter.     Column Row Layer    Max.-Head-Change    Column Row Layer    Max.-Flux-Residual            L2-New               L2-Old           Solver-Max-Delh
          0                 1          11            77   48     1      -0.3941673647E+01      77   48    1      -0.1650582206E+06      0.6071594948E+06      0.2722492156E+03     -0.3941673647E+01
          0                 2          10            65    3     2      -0.1722186804E+02      84   52    1       0.3141912190E+05      0.7133634488E+05      0.6071594948E+06     -0.1722186804E+02
          0                 3           7            65    3     2       0.1169800796E+01      65    3    2       0.6098723139E+03      0.8799183768E+03      0.7133634488E+05      0.1169800796E+01
          0                 4           6            65    3     2       0.5703640421E-01      20   29    2       0.3448005777E+02      0.6034696866E+02      0.8799183768E+03      0.5703640421E-01
          0                 5           4            65    3     2       0.2771797608E-02      20   29    2       0.3099709854E+01      0.4773410631E+01      0.6034696866E+02      0.2771797608E-02

    ------------------------------------------------
       NWT REQUIRED            5 OUTER ITERATIONS 
       AND A TOTAL OF         38 INNER ITERATIONS.
    ------------------------------------------------

 NO OUTPUT CONTROL FOR STRESS PERIOD   46   TIME STEP    3

 SOLVING FOR HEAD 
                                                   Max.-Head-Change                        Max.-Flux-Residual
  Residual-Control   Outer-Iter.   Inner-Iter.     Column Row Layer    Max.-Head-Change    Column Row Layer    Max.-Flux-Residual            L2-New               L2-Old           Solver-Max-Delh
          0                 1          11            65    3     2      -0.9218891276E+01      77   48    1      -0.1481378006E+06      0.5461458750E+06      0.4773410631E+01     -0.9218891276E+01
          0                 2          10            65    5     2      -0.2014691196E+02      77   48    1       0.1465137860E+05      0.5527989392E+05      0.5461458750E+06     -0.2014691196E+02
          0                 3           7            65    5     2       0.1910776289E+01      65    5    2       0.1160449633E+04      0.1471647014E+04      0.5527989392E+05      0.1910776289E+01
          0                 4           3            65    5     2       0.8043207927E-01      65    4    2      -0.5062844715E+02      0.7030362135E+02      0.1471647014E+04      0.8043207927E-01
          0                 5           2            65    5     2       0.3367539066E-02      65    4    2      -0.3981666608E+01      0.4515765746E+01      0.7030362135E+02      0.3367539066E-02

    ------------------------------------------------
       NWT REQUIRED            5 OUTER ITERATIONS 
       AND A TOTAL OF         33 INNER ITERATIONS.
    ------------------------------------------------

 NO OUTPUT CONTROL FOR STRESS PERIOD   46   TIME STEP    4

 SOLVING FOR HEAD 
                                                   Max.-Head-Change                        Max.-Flux-Residual
  Residual-Control   Outer-Iter.   Inner-Iter.     Column Row Layer    Max.-Head-Change    Column Row Layer    Max.-Flux-Residual            L2-New               L2-Old           Solver-Max-Delh
          0                 1          11            65    5     2      -0.8422294831E+01      77   48    1      -0.1339350170E+06      0.4977916116E+06      0.4515765746E+01     -0.8422294831E+01
          0                 2          10            65    5     2       0.3874434479E+00      80   50    1       0.2120890302E+05      0.5407359697E+05      0.4977916116E+06      0.3874434479E+00
          0                 3           6            65    5     2       0.1615179665E-01      18   29    2      -0.1820408616E+03      0.1993650692E+03      0.5407359697E+05      0.1615179665E-01
          0                 4           2            65    5     2       0.6766004614E-03      65    5    2       0.4066696924E+00      0.6313185305E+00      0.1993650692E+03      0.6766004614E-03

    ------------------------------------------------
       NWT REQUIRED            4 OUTER ITERATIONS 
       AND A TOTAL OF         29 INNER ITERATIONS.
    ------------------------------------------------

 NO OUTPUT CONTROL FOR STRESS PERIOD   46   TIME STEP    5

 SOLVING FOR HEAD 
                                                   Max.-Head-Change                        Max.-Flux-Residual
  Residual-Control   Outer-Iter.   Inner-Iter.     Column Row Layer    Max.-Head-Change    Column Row Layer    Max.-Flux-Residual            L2-New               L2-Old           Solver-Max-Delh
          0                 1          11            77   48     1      -0.2970248554E+01      77   48    1      -0.1218790118E+06      0.4589515197E+06      0.6313185305E+00     -0.2970248554E+01
          0                 2          10            57   99     2      -0.2812393208E+00      81   50    1       0.1274329194E+05      0.4798403238E+05      0.4589515197E+06     -0.2812393208E+00
          0                 3           5            84   53     1      -0.1575652482E+00      84   53    1      -0.4994007119E+04      0.4998463724E+04      0.4798403238E+05     -0.1575652482E+00
          0                 4           3            84   53     1      -0.1419924832E-01      84   53    1      -0.4499057420E+03      0.4499144563E+03      0.4998463724E+04     -0.1419924832E-01
          0                 5           2            84   53     1      -0.1276789822E-02      84   53    1      -0.4045016627E+02      0.4045087955E+02      0.4499144563E+03     -0.1276789822E-02

    ------------------------------------------------
       NWT REQUIRED            5 OUTER ITERATIONS 
       AND A TOTAL OF         31 INNER ITERATIONS.
    ------------------------------------------------

 NO OUTPUT CONTROL FOR STRESS PERIOD   46   TIME STEP    6

 SOLVING FOR HEAD 
                                                   Max.-Head-Change                        Max.-Flux-Residual
  Residual-Control   Outer-Iter.   Inner-Iter.     Column Row Layer    Max.-Head-Change    Column Row Layer    Max.-Flux-Residual            L2-New               L2-Old           Solver-Max-Delh
          0                 1          11            77   48     1      -0.2731236858E+01      77   48    1      -0.1115735971E+06      0.4270459625E+06      0.4045087955E+02     -0.2731236858E+01
          0                 2          10            84   53     1      -0.9100398798E+01      78   48    1       0.1398870992E+05      0.4477556758E+05      0.4270459625E+06     -0.9100398798E+01
          0                 3           5            84   53     1       0.3015259565E+01      84   53    1       0.5408391160E+04      0.7172293573E+04      0.4477556758E+05      0.3015259565E+01
          0                 4           3            84   53     1       0.4757394544E-01      84   52    1      -0.2520001790E+03      0.2670137857E+03      0.7172293573E+04      0.4757394544E-01
          0                 5           2            84   53     1       0.7377491099E-03      84   52    1      -0.1984752648E+02      0.1994070605E+02      0.2670137857E+03      0.7377491099E-03

    ------------------------------------------------
       NWT REQUIRED            5 OUTER ITERATIONS 
       AND A TOTAL OF         31 INNER ITERATIONS.
    ------------------------------------------------

 NO OUTPUT CONTROL FOR STRESS PERIOD   46   TIME STEP    7

 SOLVING FOR HEAD 
                                                   Max.-Head-Change                        Max.-Flux-Residual
  Residual-Control   Outer-Iter.   Inner-Iter.     Column Row Layer    Max.-Head-Change    Column Row Layer    Max.-Flux-Residual            L2-New               L2-Old           Solver-Max-Delh
          0                 1          11            77   48     1      -0.2507544888E+01      77   48    1      -0.1025217432E+06      0.3999930658E+06      0.1994070605E+02     -0.2507544888E+01
          0                 2          10            77   48     1       0.2267869827E+00      77   48    1       0.1018223312E+05      0.4052472795E+05      0.3999930658E+06      0.2267869827E+00
          0                 3           5            25   77     2       0.1529974418E-02      85   52    2      -0.4403974459E+01      0.1432517767E+02      0.4052472795E+05      0.1529974418E-02

    ------------------------------------------------
       NWT REQUIRED            3 OUTER ITERATIONS 
       AND A TOTAL OF         26 INNER ITERATIONS.
    ------------------------------------------------

 NO OUTPUT CONTROL FOR STRESS PERIOD   46   TIME STEP    8

 SOLVING FOR HEAD 
                                                   Max.-Head-Change                        Max.-Flux-Residual
  Residual-Control   Outer-Iter.   Inner-Iter.     Column Row Layer    Max.-Head-Change    Column Row Layer    Max.-Flux-Residual            L2-New               L2-Old           Solver-Max-Delh
          0                 1          11            77   48     1      -0.2304240743E+01      77   48    1      -0.9418829803E+05      0.3751023855E+06      0.1432517767E+02     -0.2304240743E+01
          0                 2          10            77   48     1       0.2084775443E+00      86   51    1       0.9730352075E+04      0.3837467051E+05      0.3751023855E+06      0.2084775443E+00
          0                 3           7            19   30     2      -0.8613489155E-02      19   30    2      -0.2042596417E+03      0.2872878781E+03      0.3837467051E+05     -0.8613489155E-02

    ------------------------------------------------
       NWT REQUIRED            3 OUTER ITERATIONS 
       AND A TOTAL OF         28 INNER ITERATIONS.
    ------------------------------------------------

 NO OUTPUT CONTROL FOR STRESS PERIOD   46   TIME STEP    9

 SOLVING FOR HEAD 
                                                   Max.-Head-Change                        Max.-Flux-Residual
  Residual-Control   Outer-Iter.   Inner-Iter.     Column Row Layer    Max.-Head-Change    Column Row Layer    Max.-Flux-Residual            L2-New               L2-Old           Solver-Max-Delh
          0                 1          11            77   48     1      -0.2118340637E+01      77   48    1      -0.8654755425E+05      0.3531105927E+06      0.2872878781E+03     -0.2118340637E+01
          0                 2          10            85   52     1       0.2463145532E+00      85   52    1       0.1314400963E+05      0.3690724722E+05      0.3531105927E+06      0.2463145532E+00
          0                 3           4            25   77     2       0.1560361235E-02      22    3    2      -0.2337999043E+02      0.2917515840E+02      0.3690724722E+05      0.1560361235E-02

    ------------------------------------------------
       NWT REQUIRED            3 OUTER ITERATIONS 
       AND A TOTAL OF         25 INNER ITERATIONS.
    ------------------------------------------------

 NO OUTPUT CONTROL FOR STRESS PERIOD   46   TIME STEP   10

 SOLVING FOR HEAD 
                                                   Max.-Head-Change                        Max.-Flux-Residual
  Residual-Control   Outer-Iter.   Inner-Iter.     Column Row Layer    Max.-Head-Change    Column Row Layer    Max.-Flux-Residual            L2-New               L2-Old           Solver-Max-Delh
          0                 1          11            77   48     1      -0.1948637565E+01      77   48    1      -0.7956096394E+05      0.3337282332E+06      0.2917515840E+02     -0.1948637565E+01
          0                 2          10            77   48     1       0.1767751147E+00      78   49    1       0.9169691884E+04      0.3433309804E+05      0.3337282332E+06      0.1767751147E+00
          0                 3           4            25   77     2       0.1566806638E-02      55   97    2       0.3529787753E+01      0.1099942375E+02      0.3433309804E+05      0.1566806638E-02

    ------------------------------------------------
       NWT REQUIRED            3 OUTER ITERATIONS 
       AND A TOTAL OF         25 INNER ITERATIONS.
    ------------------------------------------------

 NO OUTPUT CONTROL FOR STRESS PERIOD   46   TIME STEP   11

 SOLVING FOR HEAD 
                                                   Max.-Head-Change                        Max.-Flux-Residual
  Residual-Control   Outer-Iter.   Inner-Iter.     Column Row Layer    Max.-Head-Change    Column Row Layer    Max.-Flux-Residual            L2-New               L2-Old           Solver-Max-Delh
          0                 1          11            77   48     1      -0.1792514796E+01      77   48    1      -0.7317003814E+05      0.3163074759E+06      0.1099942375E+02     -0.1792514796E+01
          0                 2          10            77   48     1       0.1623602395E+00      77   48    1       0.7281733015E+04      0.3168683204E+05      0.3163074759E+06      0.1623602395E+00
          0                 3           5            13    8     2      -0.1603052971E-02      13    8    2      -0.1924634570E+03      0.2028169212E+03      0.3168683204E+05     -0.1603052971E-02

    ------------------------------------------------
       NWT REQUIRED            3 OUTER ITERATIONS 
       AND A TOTAL OF         26 INNER ITERATIONS.
    ------------------------------------------------

 OUTPUT CONTROL FOR STRESS PERIOD   46   TIME STEP   12
    SAVE BUDGET
 UBDSV1 SAVING "         STORAGE" ON UNIT  39 AT TIME STEP 12, STRESS PERIOD  46
 UBDSV2 SAVING "   CONSTANT HEAD" ON UNIT  39 AT TIME STEP 12, STRESS PERIOD  46
 UBDSV1 SAVING "FLOW RIGHT FACE " ON UNIT  39 AT TIME STEP 12, STRESS PERIOD  46
 UBDSV1 SAVING "FLOW FRONT FACE " ON UNIT  39 AT TIME STEP 12, STRESS PERIOD  46
 UBDSV1 SAVING "FLOW LOWER FACE " ON UNIT  39 AT TIME STEP 12, STRESS PERIOD  46
 UBDSV3 SAVING "              ET" ON UNIT  39 AT TIME STEP 12, STRESS PERIOD  46
 UBDSV3 SAVING "        RECHARGE" ON UNIT  39 AT TIME STEP 12, STRESS PERIOD  46
1
  VOLUMETRIC BUDGET FOR ENTIRE MODEL AT END OF TIME STEP   12, STRESS PERIOD  46
  ------------------------------------------------------------------------------

     CUMULATIVE VOLUMES      L**3       RATES FOR THIS TIME STEP      L**3/T
     ------------------                 ------------------------

           IN:                                      IN:
           ---                                      ---
             STORAGE = 40352849920.0000               STORAGE =     3901922.2500
       CONSTANT HEAD = 15624458240.0000         CONSTANT HEAD =     1035572.3125
               WELLS =   324179520.0000                 WELLS =           0.0000
                  ET =           0.0000                    ET =           0.0000
            RECHARGE =336600203264.0000              RECHARGE =    28895310.0000

            TOTAL IN =392901689344.0000              TOTAL IN =    33832804.0000

          OUT:                                     OUT:
          ----                                     ----
             STORAGE =109449527296.0000               STORAGE =     8611548.0000
       CONSTANT HEAD =110127349760.0000         CONSTANT HEAD =     7594641.5000
               WELLS =   626461888.0000                 WELLS =       12669.0000
                  ET =172699041792.0000                    ET =    17613966.0000
            RECHARGE =           0.0000              RECHARGE =           0.0000

           TOTAL OUT =392902377472.0000             TOTAL OUT =    33832824.0000

            IN - OUT =     -688128.0000              IN - OUT =         -20.0000

 PERCENT DISCREPANCY =          -0.00     PERCENT DISCREPANCY =          -0.00






         TIME SUMMARY AT END OF TIME STEP   12 IN STRESS PERIOD   46
                    SECONDS     MINUTES      HOURS       DAYS        YEARS
                    -----------------------------------------------------------
   TIME STEP LENGTH 2.62800E+06  43800.      730.00      30.417     8.32763E-02
 STRESS PERIOD TIME 3.15360E+07 5.25600E+05  8760.0      365.00     0.99932    
         TOTAL TIME 1.45170E+09 2.41949E+07 4.03249E+05  16802.      46.001    
1
1
                            STRESS PERIOD NO.   47, LENGTH =   365.0000    
                            -----------------------------------------------

                              NUMBER OF TIME STEPS =    12

                               MULTIPLIER FOR DELT =     1.000

                            INITIAL TIME STEP SIZE =   30.41667    

 WELL NO.  LAYER   ROW   COL   STRESS RATE         
 --------------------------------------------------
      1      1     55     60     -0.1392E+05
      2      1     56     60     -0.1392E+05

      2 WELLS

 REUSING SURF FROM LAST STRESS PERIOD

 REUSING EVTR FROM LAST STRESS PERIOD

 REUSING EXDP FROM LAST STRESS PERIOD



                           RECHARGE
 READING ON UNIT   16 WITH FORMAT: (15F5.0)            


     63 TIME-VARIANT SPECIFIED-HEAD CELLS

 SOLVING FOR HEAD 
                                                   Max.-Head-Change                        Max.-Flux-Residual
  Residual-Control   Outer-Iter.   Inner-Iter.     Column Row Layer    Max.-Head-Change    Column Row Layer    Max.-Flux-Residual            L2-New               L2-Old           Solver-Max-Delh
          0                 1          11            36   66     1       0.1266581230E+02      55  117    1      -0.1343779341E+06      0.8654371156E+06      0.2028169212E+03      0.1266581230E+02
          0                 2          10            92   77     2       0.8012952146E+01      55  117    1       0.1310760070E+05      0.8463850455E+05      0.8654371156E+06      0.8012952146E+01
          0                 3           6            92   77     2      -0.8793068767E-01      61   86    1       0.1896682803E+03      0.3561918714E+03      0.8463850455E+05     -0.8793068767E-01
          0                 4           4            92   77     2      -0.7059622236E-02      61   86    1      -0.1464649728E+02      0.2124813644E+02      0.3561918714E+03     -0.7059622236E-02

    ------------------------------------------------
       NWT REQUIRED            4 OUTER ITERATIONS 
       AND A TOTAL OF         31 INNER ITERATIONS.
    ------------------------------------------------

 NO OUTPUT CONTROL FOR STRESS PERIOD   47   TIME STEP    1

 SOLVING FOR HEAD 
                                                   Max.-Head-Change                        Max.-Flux-Residual
  Residual-Control   Outer-Iter.   Inner-Iter.     Column Row Layer    Max.-Head-Change    Column Row Layer    Max.-Flux-Residual            L2-New               L2-Old           Solver-Max-Delh
          0                 1          11            34   59     2       0.2301349095E+01      77   48    1      -0.8742424629E+05      0.5402019593E+06      0.2124813644E+02      0.2301349095E+01
          0                 2          10            34   59     2      -0.2127083863E+00      77   48    1       0.8691123818E+04      0.5428354592E+05      0.5402019593E+06     -0.2127083863E+00
          0                 3           5            25   77     2       0.1573590122E-02      34   59    1      -0.5881654315E+01      0.1785887028E+02      0.5428354592E+05      0.1573590122E-02

    ------------------------------------------------
       NWT REQUIRED            3 OUTER ITERATIONS 
       AND A TOTAL OF         26 INNER ITERATIONS.
    ------------------------------------------------

 NO OUTPUT CONTROL FOR STRESS PERIOD   47   TIME STEP    2

 SOLVING FOR HEAD 
                                                   Max.-Head-Change                        Max.-Flux-Residual
  Residual-Control   Outer-Iter.   Inner-Iter.     Column Row Layer    Max.-Head-Change    Column Row Layer    Max.-Flux-Residual            L2-New               L2-Old           Solver-Max-Delh
          0                 1          11            77   48     1      -0.1966018181E+01      77   48    1      -0.8028680935E+05      0.4362547899E+06      0.1785887028E+02     -0.1966018181E+01
          0                 2          10            76   48     1       0.2830877544E+00      76   48    1       0.1502464418E+05      0.4652184661E+05      0.4362547899E+06      0.2830877544E+00
          0                 3           5            25   77     2       0.1597420735E-02      61   59    1       0.1092908141E+02      0.2491454515E+02      0.4652184661E+05      0.1597420735E-02

    ------------------------------------------------
       NWT REQUIRED            3 OUTER ITERATIONS 
       AND A TOTAL OF         26 INNER ITERATIONS.
    ------------------------------------------------

 NO OUTPUT CONTROL FOR STRESS PERIOD   47   TIME STEP    3

 SOLVING FOR HEAD 
                                                   Max.-Head-Change                        Max.-Flux-Residual
  Residual-Control   Outer-Iter.   Inner-Iter.     Column Row Layer    Max.-Head-Change    Column Row Layer    Max.-Flux-Residual            L2-New               L2-Old           Solver-Max-Delh
          0                 1          11            77   48     1      -0.1794966492E+01      77   48    1      -0.7362718698E+05      0.3846110559E+06      0.2491454515E+02     -0.1794966492E+01
          0                 2          10            85   53     1      -0.9568785460E+00      77   48    1       0.1095015395E+05      0.3990545762E+05      0.3846110559E+06     -0.9568785460E+00
          0                 3           5            85   53     1       0.6267208024E-01      85   53    2      -0.9557245879E+02      0.1319294879E+03      0.3990545762E+05      0.6267208024E-01
          0                 4           2            85   53     1       0.1592181484E-02      85   53    2      -0.2406276991E+01      0.3281340103E+01      0.1319294879E+03      0.1592181484E-02

    ------------------------------------------------
       NWT REQUIRED            4 OUTER ITERATIONS 
       AND A TOTAL OF         28 INNER ITERATIONS.
    ------------------------------------------------

 NO OUTPUT CONTROL FOR STRESS PERIOD   47   TIME STEP    4

 SOLVING FOR HEAD 
                                                   Max.-Head-Change                        Max.-Flux-Residual
  Residual-Control   Outer-Iter.   Inner-Iter.     Column Row Layer    Max.-Head-Change    Column Row Layer    Max.-Flux-Residual            L2-New               L2-Old           Solver-Max-Delh
          0                 1          11            85   53     1      -0.8753717238E+01      77   48    1      -0.6559019912E+05      0.3510789255E+06      0.3281340103E+01     -0.8753717238E+01
          0                 2          10            85   53     1       0.5734477197E+00      77   48    1       0.6537224384E+04      0.3550293257E+05      0.3510789255E+06      0.5734477197E+00
          0                 3           5            85   53     1       0.1451199861E-01      51  117    2       0.2308472741E+03      0.2617932492E+03      0.3550293257E+05      0.1451199861E-01
          0                 4           3            25   78     2       0.3786888345E-03      51  117    2       0.1813513959E+02      0.1988989611E+02      0.2617932492E+03      0.3786888345E-03

    ------------------------------------------------
       NWT REQUIRED            4 OUTER ITERATIONS 
       AND A TOTAL OF         29 INNER ITERATIONS.
    ------------------------------------------------

 NO OUTPUT CONTROL FOR STRESS PERIOD   47   TIME STEP    5

 SOLVING FOR HEAD 
                                                   Max.-Head-Change                        Max.-Flux-Residual
  Residual-Control   Outer-Iter.   Inner-Iter.     Column Row Layer    Max.-Head-Change    Column Row Layer    Max.-Flux-Residual            L2-New               L2-Old           Solver-Max-Delh
          0                 1          11            55   97     3      -0.1613993018E+01      77   48    1      -0.5186970840E+05      0.3258489674E+06      0.1988989611E+02     -0.1613993018E+01
          0                 2          10            58   89     3       0.1742676182E+00      77   48    1       0.5173762638E+04      0.3298758501E+05      0.3258489674E+06      0.1742676182E+00
          0                 3           5            58   89     3      -0.1584755468E-01      58   89    3      -0.3534575856E+03      0.4236634084E+03      0.3298758501E+05     -0.1584755468E-01
          0                 4           2            25   78     2       0.3806332198E-03      25   77    2       0.3104422714E-01      0.1392085140E+00      0.4236634084E+03      0.3806332198E-03

    ------------------------------------------------
       NWT REQUIRED            4 OUTER ITERATIONS 
       AND A TOTAL OF         28 INNER ITERATIONS.
    ------------------------------------------------

 NO OUTPUT CONTROL FOR STRESS PERIOD   47   TIME STEP    6

 SOLVING FOR HEAD 
                                                   Max.-Head-Change                        Max.-Flux-Residual
  Residual-Control   Outer-Iter.   Inner-Iter.     Column Row Layer    Max.-Head-Change    Column Row Layer    Max.-Flux-Residual            L2-New               L2-Old           Solver-Max-Delh
          0                 1          11            55   97     3      -0.1567490793E+01      77   48    1      -0.4123994108E+05      0.3063266798E+06      0.1392085140E+00     -0.1567490793E+01
          0                 2          10            55   97     3       0.1406237738E+00      77   48    1       0.4115940925E+04      0.3083066226E+05      0.3063266798E+06      0.1406237738E+00
          0                 3           6            25   41     2       0.3222598722E-02      25   41    2       0.1970027701E+03      0.1973145480E+03      0.3083066226E+05      0.3222598722E-02

    ------------------------------------------------
       NWT REQUIRED            3 OUTER ITERATIONS 
       AND A TOTAL OF         27 INNER ITERATIONS.
    ------------------------------------------------

 NO OUTPUT CONTROL FOR STRESS PERIOD   47   TIME STEP    7

 SOLVING FOR HEAD 
                                                   Max.-Head-Change                        Max.-Flux-Residual
  Residual-Control   Outer-Iter.   Inner-Iter.     Column Row Layer    Max.-Head-Change    Column Row Layer    Max.-Flux-Residual            L2-New               L2-Old           Solver-Max-Delh
          0                 1          11            55   97     3      -0.1522974977E+01      89   51    1      -0.3954054889E+05      0.2908947822E+06      0.1973145480E+03     -0.1522974977E+01
          0                 2          10            55   97     3       0.1366361487E+00      89   51    1       0.3947516842E+04      0.2922419822E+05      0.2908947822E+06      0.1366361487E+00
          0                 3           5            25   41     2      -0.4504276137E-02      25   41    2      -0.1893015610E+03      0.1956905485E+03      0.2922419822E+05     -0.4504276137E-02

    ------------------------------------------------
       NWT REQUIRED            3 OUTER ITERATIONS 
       AND A TOTAL OF         26 INNER ITERATIONS.
    ------------------------------------------------

 NO OUTPUT CONTROL FOR STRESS PERIOD   47   TIME STEP    8

 SOLVING FOR HEAD 
                                                   Max.-Head-Change                        Max.-Flux-Residual
  Residual-Control   Outer-Iter.   Inner-Iter.     Column Row Layer    Max.-Head-Change    Column Row Layer    Max.-Flux-Residual            L2-New               L2-Old           Solver-Max-Delh
          0                 1          11            55   97     3      -0.1480335253E+01      89   51    1      -0.3820746209E+05      0.2782711883E+06      0.1956905485E+03     -0.1480335253E+01
          0                 2          10            55   97     3       0.1328162043E+00      89   51    1       0.3815197531E+04      0.2783554216E+05      0.2782711883E+06      0.1328162043E+00
          0                 3           5            79   49     1       0.2940566572E-02      79   49    1       0.1613194293E+03      0.1630573530E+03      0.2783554216E+05      0.2940566572E-02

    ------------------------------------------------
       NWT REQUIRED            3 OUTER ITERATIONS 
       AND A TOTAL OF         26 INNER ITERATIONS.
    ------------------------------------------------

 NO OUTPUT CONTROL FOR STRESS PERIOD   47   TIME STEP    9

 SOLVING FOR HEAD 
                                                   Max.-Head-Change                        Max.-Flux-Residual
  Residual-Control   Outer-Iter.   Inner-Iter.     Column Row Layer    Max.-Head-Change    Column Row Layer    Max.-Flux-Residual            L2-New               L2-Old           Solver-Max-Delh
          0                 1          11            55   97     3      -0.1439468592E+01      89   51    1      -0.3701678101E+05      0.2676971578E+06      0.1630573530E+03     -0.1439468592E+01
          0                 2          10            55   97     3       0.1291547625E+00      79   49    1       0.4914823321E+04      0.2716962837E+05      0.2676971578E+06      0.1291547625E+00
          0                 3           5            69   21     2       0.8749644064E-02      69   21    2       0.8890510572E+02      0.9018072251E+02      0.2716962837E+05      0.8749644064E-02

    ------------------------------------------------
       NWT REQUIRED            3 OUTER ITERATIONS 
       AND A TOTAL OF         26 INNER ITERATIONS.
    ------------------------------------------------

 NO OUTPUT CONTROL FOR STRESS PERIOD   47   TIME STEP   10

 SOLVING FOR HEAD 
                                                   Max.-Head-Change                        Max.-Flux-Residual
  Residual-Control   Outer-Iter.   Inner-Iter.     Column Row Layer    Max.-Head-Change    Column Row Layer    Max.-Flux-Residual            L2-New               L2-Old           Solver-Max-Delh
          0                 1          11            55   97     3      -0.1400278120E+01      90   52    1      -0.3657946126E+05      0.2585050533E+06      0.9018072251E+02     -0.1400278120E+01
          0                 2           9            83   49     1      -0.5462109637E+00      69   21    2       0.7132881127E+04      0.2688292080E+05      0.2585050533E+06     -0.5462109637E+00
          0                 3           5            83   49     1       0.4495001414E-01      83   49    1       0.1852303402E+03      0.1992361633E+03      0.2688292080E+05      0.4495001414E-01
          0                 4           2            25   77     2       0.3991038466E-03      83   49    1       0.1550038259E+01      0.1574675163E+01      0.1992361633E+03      0.3991038466E-03

    ------------------------------------------------
       NWT REQUIRED            4 OUTER ITERATIONS 
       AND A TOTAL OF         27 INNER ITERATIONS.
    ------------------------------------------------

 NO OUTPUT CONTROL FOR STRESS PERIOD   47   TIME STEP   11

 SOLVING FOR HEAD 
                                                   Max.-Head-Change                        Max.-Flux-Residual
  Residual-Control   Outer-Iter.   Inner-Iter.     Column Row Layer    Max.-Head-Change    Column Row Layer    Max.-Flux-Residual            L2-New               L2-Old           Solver-Max-Delh
          0                 1          11            73   14     1      -0.2139458747E+01      90   52    1      -0.3618384597E+05      0.2505030469E+06      0.1574675163E+01     -0.2139458747E+01
          0                 2           9            57   81     2       0.2442595357E+00      57   81    2       0.8002725794E+04      0.2629591509E+05      0.2505030469E+06      0.2442595357E+00
          0                 3           4            25   77     2       0.1707508691E-02      73   14    1       0.5148676012E+01      0.1136051175E+02      0.2629591509E+05      0.1707508691E-02

    ------------------------------------------------
       NWT REQUIRED            3 OUTER ITERATIONS 
       AND A TOTAL OF         24 INNER ITERATIONS.
    ------------------------------------------------

 OUTPUT CONTROL FOR STRESS PERIOD   47   TIME STEP   12
    SAVE BUDGET
 UBDSV1 SAVING "         STORAGE" ON UNIT  39 AT TIME STEP 12, STRESS PERIOD  47
 UBDSV2 SAVING "   CONSTANT HEAD" ON UNIT  39 AT TIME STEP 12, STRESS PERIOD  47
 UBDSV1 SAVING "FLOW RIGHT FACE " ON UNIT  39 AT TIME STEP 12, STRESS PERIOD  47
 UBDSV1 SAVING "FLOW FRONT FACE " ON UNIT  39 AT TIME STEP 12, STRESS PERIOD  47
 UBDSV1 SAVING "FLOW LOWER FACE " ON UNIT  39 AT TIME STEP 12, STRESS PERIOD  47
 UBDSV3 SAVING "              ET" ON UNIT  39 AT TIME STEP 12, STRESS PERIOD  47
 UBDSV3 SAVING "        RECHARGE" ON UNIT  39 AT TIME STEP 12, STRESS PERIOD  47
1
  VOLUMETRIC BUDGET FOR ENTIRE MODEL AT END OF TIME STEP   12, STRESS PERIOD  47
  ------------------------------------------------------------------------------

     CUMULATIVE VOLUMES      L**3       RATES FOR THIS TIME STEP      L**3/T
     ------------------                 ------------------------

           IN:                                      IN:
           ---                                      ---
             STORAGE = 42862088192.0000               STORAGE =     5457501.0000
       CONSTANT HEAD = 16060503040.0000         CONSTANT HEAD =     1266896.7500
               WELLS =   324179520.0000                 WELLS =           0.0000
                  ET =           0.0000                    ET =           0.0000
            RECHARGE =344540020736.0000              RECHARGE =    21752544.0000

            TOTAL IN =403786792960.0000              TOTAL IN =    28476942.0000

          OUT:                                     OUT:
          ----                                     ----
             STORAGE =111604563968.0000               STORAGE =     5192366.0000
       CONSTANT HEAD =112906100736.0000         CONSTANT HEAD =     7626722.0000
               WELLS =   636624832.0000                 WELLS =       27844.0000
                  ET =178640044032.0000                    ET =    15630035.0000
            RECHARGE =           0.0000              RECHARGE =           0.0000

           TOTAL OUT =403787350016.0000             TOTAL OUT =    28476968.0000

            IN - OUT =     -557056.0000              IN - OUT =         -26.0000

 PERCENT DISCREPANCY =          -0.00     PERCENT DISCREPANCY =          -0.00






         TIME SUMMARY AT END OF TIME STEP   12 IN STRESS PERIOD   47
                    SECONDS     MINUTES      HOURS       DAYS        YEARS
                    -----------------------------------------------------------
   TIME STEP LENGTH 2.62800E+06  43800.      730.00      30.417     8.32763E-02
 STRESS PERIOD TIME 3.15360E+07 5.25600E+05  8760.0      365.00     0.99932    
         TOTAL TIME 1.48323E+09 2.47205E+07 4.12009E+05  17167.      47.001    
1
1
                            STRESS PERIOD NO.   48, LENGTH =   365.0000    
                            -----------------------------------------------

                              NUMBER OF TIME STEPS =    12

                               MULTIPLIER FOR DELT =     1.000

                            INITIAL TIME STEP SIZE =   30.41667    

 WELL NO.  LAYER   ROW   COL   STRESS RATE         
 --------------------------------------------------
      1      2     57     59      -1392.    

      1 WELL 

 REUSING SURF FROM LAST STRESS PERIOD

 REUSING EVTR FROM LAST STRESS PERIOD

 REUSING EXDP FROM LAST STRESS PERIOD



                           RECHARGE
 READING ON UNIT   16 WITH FORMAT: (15F5.0)            


     63 TIME-VARIANT SPECIFIED-HEAD CELLS

 SOLVING FOR HEAD 
                                                   Max.-Head-Change                        Max.-Flux-Residual
  Residual-Control   Outer-Iter.   Inner-Iter.     Column Row Layer    Max.-Head-Change    Column Row Layer    Max.-Flux-Residual            L2-New               L2-Old           Solver-Max-Delh
          0                 1          11            92   77     2      -0.1688307656E+02      19   74    1      -0.7840669446E+05      0.4177183569E+06      0.1136051175E+02     -0.1688307656E+02
          0                 2          10            19   74     1       0.1300188935E+01      27   50    1      -0.7621964900E+04      0.4227626043E+05      0.4177183569E+06      0.1300188935E+01
          0                 3           7            20   33     2      -0.1709446248E-01      20   33    2      -0.4135965026E+03      0.6194560822E+03      0.4227626043E+05     -0.1709446248E-01
          0                 4           3            92   77     2       0.1136364978E-02      26   49    2       0.8418950178E+00      0.1571279445E+01      0.6194560822E+03      0.1136364978E-02

    ------------------------------------------------
       NWT REQUIRED            4 OUTER ITERATIONS 
       AND A TOTAL OF         31 INNER ITERATIONS.
    ------------------------------------------------

 NO OUTPUT CONTROL FOR STRESS PERIOD   48   TIME STEP    1

 SOLVING FOR HEAD 
                                                   Max.-Head-Change                        Max.-Flux-Residual
  Residual-Control   Outer-Iter.   Inner-Iter.     Column Row Layer    Max.-Head-Change    Column Row Layer    Max.-Flux-Residual            L2-New               L2-Old           Solver-Max-Delh
          0                 1          11            55   97     3      -0.1778575890E+01      92   52    1      -0.4460258888E+05      0.3247031629E+06      0.1571279445E+01     -0.1778575890E+01
          0                 2          10            55   97     3       0.1595337935E+00      92   52    1       0.4453610923E+04      0.3252172597E+05      0.3247031629E+06      0.1595337935E+00
          0                 3           6            25   77     2       0.1748711075E-02      30   48    3      -0.2537322667E+02      0.4604945931E+02      0.3252172597E+05      0.1748711075E-02

    ------------------------------------------------
       NWT REQUIRED            3 OUTER ITERATIONS 
       AND A TOTAL OF         27 INNER ITERATIONS.
    ------------------------------------------------

 NO OUTPUT CONTROL FOR STRESS PERIOD   48   TIME STEP    2

 SOLVING FOR HEAD 
                                                   Max.-Head-Change                        Max.-Flux-Residual
  Residual-Control   Outer-Iter.   Inner-Iter.     Column Row Layer    Max.-Head-Change    Column Row Layer    Max.-Flux-Residual            L2-New               L2-Old           Solver-Max-Delh
          0                 1          11            55   97     3      -0.1730083556E+01      92   52    1      -0.4335414400E+05      0.2951096455E+06      0.4604945931E+02     -0.1730083556E+01
          0                 2          10            55   97     3       0.1552068749E+00      92   52    1       0.4330223409E+04      0.2972473318E+05      0.2951096455E+06      0.1552068749E+00
          0                 3           6            15   42     3       0.2954503930E-02      15   42    3       0.1980626067E+03      0.2043523613E+03      0.2972473318E+05      0.2954503930E-02

    ------------------------------------------------
       NWT REQUIRED            3 OUTER ITERATIONS 
       AND A TOTAL OF         27 INNER ITERATIONS.
    ------------------------------------------------

 NO OUTPUT CONTROL FOR STRESS PERIOD   48   TIME STEP    3

 SOLVING FOR HEAD 
                                                   Max.-Head-Change                        Max.-Flux-Residual
  Residual-Control   Outer-Iter.   Inner-Iter.     Column Row Layer    Max.-Head-Change    Column Row Layer    Max.-Flux-Residual            L2-New               L2-Old           Solver-Max-Delh
          0                 1          11            55   97     3      -0.1683502187E+01      92   52    1      -0.4229269278E+05      0.2799840856E+06      0.2043523613E+03     -0.1683502187E+01
          0                 2          10            55   97     3       0.1510195585E+00      92   52    1       0.4225254797E+04      0.2822344190E+05      0.2799840856E+06      0.1510195585E+00
          0                 3           6            15   42     3      -0.5755692512E-02      15   42    3      -0.2545503217E+03      0.3002211730E+03      0.2822344190E+05     -0.5755692512E-02

    ------------------------------------------------
       NWT REQUIRED            3 OUTER ITERATIONS 
       AND A TOTAL OF         27 INNER ITERATIONS.
    ------------------------------------------------

 NO OUTPUT CONTROL FOR STRESS PERIOD   48   TIME STEP    4

 SOLVING FOR HEAD 
                                                   Max.-Head-Change                        Max.-Flux-Residual
  Residual-Control   Outer-Iter.   Inner-Iter.     Column Row Layer    Max.-Head-Change    Column Row Layer    Max.-Flux-Residual            L2-New               L2-Old           Solver-Max-Delh
          0                 1          11            55   97     3      -0.1638804164E+01      92   52    1      -0.4138572132E+05      0.2696521485E+06      0.3002211730E+03     -0.1638804164E+01
          0                 2          10            55   97     3       0.1470162074E+00      92   52    1       0.4135508438E+04      0.2697109411E+05      0.2696521485E+06      0.1470162074E+00
          0                 3           6            25   77     2       0.1831583956E-02      31   49    3      -0.3171213067E+02      0.4624399109E+02      0.2697109411E+05      0.1831583956E-02

    ------------------------------------------------
       NWT REQUIRED            3 OUTER ITERATIONS 
       AND A TOTAL OF         27 INNER ITERATIONS.
    ------------------------------------------------

 NO OUTPUT CONTROL FOR STRESS PERIOD   48   TIME STEP    5

 SOLVING FOR HEAD 
                                                   Max.-Head-Change                        Max.-Flux-Residual
  Residual-Control   Outer-Iter.   Inner-Iter.     Column Row Layer    Max.-Head-Change    Column Row Layer    Max.-Flux-Residual            L2-New               L2-Old           Solver-Max-Delh
          0                 1          11            55   97     3      -0.1595892076E+01      91   52    1      -0.4060976920E+05      0.2616340842E+06      0.4624399109E+02     -0.1595892076E+01
          0                 2          10            83   53     1      -0.1523170844E+01      91   52    1       0.4058585215E+04      0.2630149524E+05      0.2616340842E+06     -0.1523170844E+01
          0                 3           5            83   53     1       0.1129488276E+00      83   53    1       0.1886145771E+03      0.2129559024E+03      0.2630149524E+05      0.1129488276E+00
          0                 4           2            83   53     1       0.1896896783E-02      83   53    1       0.3140843223E+01      0.3415292582E+01      0.2129559024E+03      0.1896896783E-02

    ------------------------------------------------
       NWT REQUIRED            4 OUTER ITERATIONS 
       AND A TOTAL OF         28 INNER ITERATIONS.
    ------------------------------------------------

 NO OUTPUT CONTROL FOR STRESS PERIOD   48   TIME STEP    6

 SOLVING FOR HEAD 
                                                   Max.-Head-Change                        Max.-Flux-Residual
  Residual-Control   Outer-Iter.   Inner-Iter.     Column Row Layer    Max.-Head-Change    Column Row Layer    Max.-Flux-Residual            L2-New               L2-Old           Solver-Max-Delh
          0                 1          11            83   53     1      -0.2136310991E+01      91   52    1      -0.3996412111E+05      0.2549434158E+06      0.3415292582E+01     -0.2136310991E+01
          0                 2          10            83   53     1       0.1560163291E+00      91   52    1       0.3994627539E+04      0.2548839103E+05      0.2549434158E+06      0.1560163291E+00
          0                 3           5            83   53     1       0.2604495924E-02      83   53    1       0.4281309335E+01      0.1124705371E+02      0.2548839103E+05      0.2604495924E-02

    ------------------------------------------------
       NWT REQUIRED            3 OUTER ITERATIONS 
       AND A TOTAL OF         26 INNER ITERATIONS.
    ------------------------------------------------

 NO OUTPUT CONTROL FOR STRESS PERIOD   48   TIME STEP    7

 SOLVING FOR HEAD 
                                                   Max.-Head-Change                        Max.-Flux-Residual
  Residual-Control   Outer-Iter.   Inner-Iter.     Column Row Layer    Max.-Head-Change    Column Row Layer    Max.-Flux-Residual            L2-New               L2-Old           Solver-Max-Delh
          0                 1          11            55   97     3      -0.1515101694E+01      91   52    1      -0.3939687806E+05      0.2491644456E+06      0.1124705371E+02     -0.1515101694E+01
          0                 2          10            55   97     3       0.1359352132E+00      91   52    1       0.3938374782E+04      0.2501582974E+05      0.2491644456E+06      0.1359352132E+00
          0                 3           5            24    5     2      -0.1905875146E-02      24    5    2      -0.5912915378E+02      0.6304828952E+02      0.2501582974E+05     -0.1905875146E-02

    ------------------------------------------------
       NWT REQUIRED            3 OUTER ITERATIONS 
       AND A TOTAL OF         26 INNER ITERATIONS.
    ------------------------------------------------

 NO OUTPUT CONTROL FOR STRESS PERIOD   48   TIME STEP    8

 SOLVING FOR HEAD 
                                                   Max.-Head-Change                        Max.-Flux-Residual
  Residual-Control   Outer-Iter.   Inner-Iter.     Column Row Layer    Max.-Head-Change    Column Row Layer    Max.-Flux-Residual            L2-New               L2-Old           Solver-Max-Delh
          0                 1          11            55   97     3      -0.1477066224E+01      91   52    1      -0.3889171252E+05      0.2439044975E+06      0.6304828952E+02     -0.1477066224E+01
          0                 2          10            55   97     3       0.1325275430E+00      91   52    1       0.3888226568E+04      0.2441370304E+05      0.2439044975E+06      0.1325275430E+00
          0                 3           6            18   47     2      -0.7507184375E-02      18   47    2      -0.1744245623E+03      0.1838832584E+03      0.2441370304E+05     -0.7507184375E-02

    ------------------------------------------------
       NWT REQUIRED            3 OUTER ITERATIONS 
       AND A TOTAL OF         27 INNER ITERATIONS.
    ------------------------------------------------

 NO OUTPUT CONTROL FOR STRESS PERIOD   48   TIME STEP    9

 SOLVING FOR HEAD 
                                                   Max.-Head-Change                        Max.-Flux-Residual
  Residual-Control   Outer-Iter.   Inner-Iter.     Column Row Layer    Max.-Head-Change    Column Row Layer    Max.-Flux-Residual            L2-New               L2-Old           Solver-Max-Delh
          0                 1          11            55   97     3      -0.1440504277E+01      91   52    1      -0.3843589768E+05      0.2391203356E+06      0.1838832584E+03     -0.1440504277E+01
          0                 2          10            55   97     3       0.1292516393E+00      91   52    1       0.3842934268E+04      0.2436526613E+05      0.2391203356E+06      0.1292516393E+00
          0                 3           5            25   77     2       0.1921321769E-02      21    2    2      -0.2690458530E+02      0.3310179553E+02      0.2436526613E+05      0.1921321769E-02

    ------------------------------------------------
       NWT REQUIRED            3 OUTER ITERATIONS 
       AND A TOTAL OF         26 INNER ITERATIONS.
    ------------------------------------------------

 NO OUTPUT CONTROL FOR STRESS PERIOD   48   TIME STEP   10

 INTERPOLATION FOR HEAD OBS#  252, ID 3260-48-334  CHANGED BECAUSE AT LEAST ONE
 NEIGHBORING CELL REQUIRED FOR INTERPOLATION IS DRY OR INACTIVE (OBS2BAS7SE)

 INTERPOLATION FOR HEAD OBS#  636, ID 3014-48-334  CHANGED BECAUSE AT LEAST ONE
 NEIGHBORING CELL REQUIRED FOR INTERPOLATION IS DRY OR INACTIVE (OBS2BAS7SE)

 INTERPOLATION FOR HEAD OBS# 1338, ID 2869-48-334  CHANGED BECAUSE AT LEAST ONE
 NEIGHBORING CELL REQUIRED FOR INTERPOLATION IS DRY OR INACTIVE (OBS2BAS7SE)

 INTERPOLATION FOR HEAD OBS# 1401, ID 2840-48-334  CHANGED BECAUSE AT LEAST ONE
 NEIGHBORING CELL REQUIRED FOR INTERPOLATION IS DRY OR INACTIVE (OBS2BAS7SE)

 SOLVING FOR HEAD 
                                                   Max.-Head-Change                        Max.-Flux-Residual
  Residual-Control   Outer-Iter.   Inner-Iter.     Column Row Layer    Max.-Head-Change    Column Row Layer    Max.-Flux-Residual            L2-New               L2-Old           Solver-Max-Delh
          0                 1          11            55   97     3      -0.1405343558E+01      91   52    1      -0.3801947971E+05      0.2347089355E+06      0.3310179553E+02     -0.1405343558E+01
          0                 2          10            55   97     3       0.1261010499E+00      91   52    1       0.3801520711E+04      0.2346856762E+05      0.2347089355E+06      0.1261010499E+00
          0                 3           5            25   77     2       0.1932943980E-02      55   97    2       0.3067925105E+01      0.9673558530E+01      0.2346856762E+05      0.1932943980E-02

    ------------------------------------------------
       NWT REQUIRED            3 OUTER ITERATIONS 
       AND A TOTAL OF         26 INNER ITERATIONS.
    ------------------------------------------------

 NO OUTPUT CONTROL FOR STRESS PERIOD   48   TIME STEP   11

 INTERPOLATION FOR HEAD OBS#  649, ID 3055-48-335  CHANGED BECAUSE AT LEAST ONE
 NEIGHBORING CELL REQUIRED FOR INTERPOLATION IS DRY OR INACTIVE (OBS2BAS7SE)

 INTERPOLATION FOR HEAD OBS#  773, ID 3008-48-336  CHANGED BECAUSE AT LEAST ONE
 NEIGHBORING CELL REQUIRED FOR INTERPOLATION IS DRY OR INACTIVE (OBS2BAS7SE)

 INTERPOLATION FOR HEAD OBS# 1655, ID 2303-48-349  CHANGED BECAUSE AT LEAST ONE
 NEIGHBORING CELL REQUIRED FOR INTERPOLATION IS DRY OR INACTIVE (OBS2BAS7SE)

 INTERPOLATION FOR HEAD OBS# 2181, ID 2355-48-362  CHANGED BECAUSE AT LEAST ONE
 NEIGHBORING CELL REQUIRED FOR INTERPOLATION IS DRY OR INACTIVE (OBS2BAS7SE)

 INTERPOLATION FOR HEAD OBS# 3193, ID 2443-48-336  CHANGED BECAUSE AT LEAST ONE
 NEIGHBORING CELL REQUIRED FOR INTERPOLATION IS DRY OR INACTIVE (OBS2BAS7SE)

 INTERPOLATION FOR HEAD OBS# 3695, ID 1479-48-364  CHANGED BECAUSE AT LEAST ONE
 NEIGHBORING CELL REQUIRED FOR INTERPOLATION IS DRY OR INACTIVE (OBS2BAS7SE)

 INTERPOLATION FOR HEAD OBS# 3709, ID 1471-48-364  CHANGED BECAUSE AT LEAST ONE
 NEIGHBORING CELL REQUIRED FOR INTERPOLATION IS DRY OR INACTIVE (OBS2BAS7SE)

 INTERPOLATION FOR HEAD OBS# 3752, ID 1427-48-364  CHANGED BECAUSE AT LEAST ONE
 NEIGHBORING CELL REQUIRED FOR INTERPOLATION IS DRY OR INACTIVE (OBS2BAS7SE)

 INTERPOLATION FOR HEAD OBS# 3769, ID 1405-48-364  CHANGED BECAUSE AT LEAST ONE
 NEIGHBORING CELL REQUIRED FOR INTERPOLATION IS DRY OR INACTIVE (OBS2BAS7SE)

 INTERPOLATION FOR HEAD OBS# 5396, ID 1705-48-335  CHANGED BECAUSE AT LEAST ONE
 NEIGHBORING CELL REQUIRED FOR INTERPOLATION IS DRY OR INACTIVE (OBS2BAS7SE)

 INTERPOLATION FOR HEAD OBS# 5400, ID 1530-48-335  CHANGED BECAUSE AT LEAST ONE
 NEIGHBORING CELL REQUIRED FOR INTERPOLATION IS DRY OR INACTIVE (OBS2BAS7SE)

 INTERPOLATION FOR HEAD OBS# 5426, ID 846-48-348   CHANGED BECAUSE AT LEAST ONE
 NEIGHBORING CELL REQUIRED FOR INTERPOLATION IS DRY OR INACTIVE (OBS2BAS7SE)

 INTERPOLATION FOR HEAD OBS# 6239, ID 1164-48-336  CHANGED BECAUSE AT LEAST ONE
 NEIGHBORING CELL REQUIRED FOR INTERPOLATION IS DRY OR INACTIVE (OBS2BAS7SE)

 INTERPOLATION FOR HEAD OBS# 6247, ID 1084-48-338  CHANGED BECAUSE AT LEAST ONE
 NEIGHBORING CELL REQUIRED FOR INTERPOLATION IS DRY OR INACTIVE (OBS2BAS7SE)

 INTERPOLATION FOR HEAD OBS# 6994, ID 683-48-342   CHANGED BECAUSE AT LEAST ONE
 NEIGHBORING CELL REQUIRED FOR INTERPOLATION IS DRY OR INACTIVE (OBS2BAS7SE)

 INTERPOLATION FOR HEAD OBS# 7373, ID 451-48-336   CHANGED BECAUSE AT LEAST ONE
 NEIGHBORING CELL REQUIRED FOR INTERPOLATION IS DRY OR INACTIVE (OBS2BAS7SE)

 INTERPOLATION FOR HEAD OBS# 7379, ID 397-48-336   CHANGED BECAUSE AT LEAST ONE
 NEIGHBORING CELL REQUIRED FOR INTERPOLATION IS DRY OR INACTIVE (OBS2BAS7SE)

 INTERPOLATION FOR HEAD OBS# 7526, ID 269-48-337   CHANGED BECAUSE AT LEAST ONE
 NEIGHBORING CELL REQUIRED FOR INTERPOLATION IS DRY OR INACTIVE (OBS2BAS7SE)

 INTERPOLATION FOR HEAD OBS# 7556, ID 230-48-337   CHANGED BECAUSE AT LEAST ONE
 NEIGHBORING CELL REQUIRED FOR INTERPOLATION IS DRY OR INACTIVE (OBS2BAS7SE)

 INTERPOLATION FOR HEAD OBS# 7775, ID 178-48-336   CHANGED BECAUSE AT LEAST ONE
 NEIGHBORING CELL REQUIRED FOR INTERPOLATION IS DRY OR INACTIVE (OBS2BAS7SE)

 SOLVING FOR HEAD 
                                                   Max.-Head-Change                        Max.-Flux-Residual
  Residual-Control   Outer-Iter.   Inner-Iter.     Column Row Layer    Max.-Head-Change    Column Row Layer    Max.-Flux-Residual            L2-New               L2-Old           Solver-Max-Delh
          0                 1          11            55   97     3      -0.1371516351E+01      91   51    1      -0.3787515628E+05      0.2306590259E+06      0.9673558530E+01     -0.1371516351E+01
          0                 2          10            69   21     1      -0.3567046543E+00      91   51    1       0.3786013227E+04      0.2321460238E+05      0.2306590259E+06     -0.3567046543E+00
          0                 3           5            69   21     1       0.3048527949E-01      69   21    1       0.1751655886E+03      0.1823403083E+03      0.2321460238E+05      0.3048527949E-01
          0                 4           2            25   77     2       0.4546090673E-03      69   21    1       0.9158504494E+00      0.9450495585E+00      0.1823403083E+03      0.4546090673E-03

    ------------------------------------------------
       NWT REQUIRED            4 OUTER ITERATIONS 
       AND A TOTAL OF         28 INNER ITERATIONS.
    ------------------------------------------------

 OUTPUT CONTROL FOR STRESS PERIOD   48   TIME STEP   12
    SAVE BUDGET
 UBDSV1 SAVING "         STORAGE" ON UNIT  39 AT TIME STEP 12, STRESS PERIOD  48
 UBDSV2 SAVING "   CONSTANT HEAD" ON UNIT  39 AT TIME STEP 12, STRESS PERIOD  48
 UBDSV1 SAVING "FLOW RIGHT FACE " ON UNIT  39 AT TIME STEP 12, STRESS PERIOD  48
 UBDSV1 SAVING "FLOW FRONT FACE " ON UNIT  39 AT TIME STEP 12, STRESS PERIOD  48
 UBDSV1 SAVING "FLOW LOWER FACE " ON UNIT  39 AT TIME STEP 12, STRESS PERIOD  48
 UBDSV3 SAVING "              ET" ON UNIT  39 AT TIME STEP 12, STRESS PERIOD  48
 UBDSV3 SAVING "        RECHARGE" ON UNIT  39 AT TIME STEP 12, STRESS PERIOD  48
1
  VOLUMETRIC BUDGET FOR ENTIRE MODEL AT END OF TIME STEP   12, STRESS PERIOD  48
  ------------------------------------------------------------------------------

     CUMULATIVE VOLUMES      L**3       RATES FOR THIS TIME STEP      L**3/T
     ------------------                 ------------------------

           IN:                                      IN:
           ---                                      ---
             STORAGE = 45119635456.0000               STORAGE =     5493402.5000
       CONSTANT HEAD = 16542949376.0000         CONSTANT HEAD =     1354178.3750
               WELLS =   324179520.0000                 WELLS =           0.0000
                  ET =           0.0000                    ET =           0.0000
            RECHARGE =351775981568.0000              RECHARGE =    19824122.0000

            TOTAL IN =413762748416.0000              TOTAL IN =    26671704.0000

          OUT:                                     OUT:
          ----                                     ----
             STORAGE =113321115648.0000               STORAGE =     4396160.5000
       CONSTANT HEAD =115684179968.0000         CONSTANT HEAD =     7626961.5000
               WELLS =   637133248.0000                 WELLS =        1392.0000
                  ET =184120688640.0000                    ET =    14647213.0000
            RECHARGE =           0.0000              RECHARGE =           0.0000

           TOTAL OUT =413763108864.0000             TOTAL OUT =    26671728.0000

            IN - OUT =     -360448.0000              IN - OUT =         -24.0000

 PERCENT DISCREPANCY =          -0.00     PERCENT DISCREPANCY =          -0.00






         TIME SUMMARY AT END OF TIME STEP   12 IN STRESS PERIOD   48
                    SECONDS     MINUTES      HOURS       DAYS        YEARS
                    -----------------------------------------------------------
   TIME STEP LENGTH 2.62800E+06  43800.      730.00      30.417     8.32763E-02
 STRESS PERIOD TIME 3.15360E+07 5.25600E+05  8760.0      365.00     0.99932    
         TOTAL TIME 1.51477E+09 2.52461E+07 4.20769E+05  17532.      48.000    
1
1
                            STRESS PERIOD NO.   49, LENGTH =   366.0000    
                            -----------------------------------------------

                              NUMBER OF TIME STEPS =    12

                               MULTIPLIER FOR DELT =     1.000

                            INITIAL TIME STEP SIZE =   30.50000    

 WELL NO.  LAYER   ROW   COL   STRESS RATE         
 --------------------------------------------------
      1      2     57     59      -1114.    

      1 WELL 

 REUSING SURF FROM LAST STRESS PERIOD

 REUSING EVTR FROM LAST STRESS PERIOD

 REUSING EXDP FROM LAST STRESS PERIOD



                           RECHARGE
 READING ON UNIT   16 WITH FORMAT: (15F5.0)            


     63 TIME-VARIANT SPECIFIED-HEAD CELLS

 SOLVING FOR HEAD 
                                                   Max.-Head-Change                        Max.-Flux-Residual
  Residual-Control   Outer-Iter.   Inner-Iter.     Column Row Layer    Max.-Head-Change    Column Row Layer    Max.-Flux-Residual            L2-New               L2-Old           Solver-Max-Delh
          0                 1          11            92   77     2      -0.7922779419E+01      92   52    1      -0.8796733219E+05      0.4308137249E+06      0.9450495585E+00     -0.7922779419E+01
          0                 2          10            92   77     2       0.3158538893E+01      92   52    1       0.8734223128E+04      0.4294198040E+05      0.4308137249E+06      0.3158538893E+01
          0                 3           5            92   77     2       0.1348350619E+00      92   77    2       0.8706552483E+02      0.1136011438E+03      0.4294198040E+05      0.1348350619E+00
          0                 4           2            92   77     2       0.5702469044E-02      92   77    2       0.3715570473E+01      0.3766169295E+01      0.1136011438E+03      0.5702469044E-02

    ------------------------------------------------
       NWT REQUIRED            4 OUTER ITERATIONS 
       AND A TOTAL OF         28 INNER ITERATIONS.
    ------------------------------------------------

 NO OUTPUT CONTROL FOR STRESS PERIOD   49   TIME STEP    1

 SOLVING FOR HEAD 
                                                   Max.-Head-Change                        Max.-Flux-Residual
  Residual-Control   Outer-Iter.   Inner-Iter.     Column Row Layer    Max.-Head-Change    Column Row Layer    Max.-Flux-Residual            L2-New               L2-Old           Solver-Max-Delh
          0                 1          11            92   52     1      -0.2390260194E+01      92   52    1      -0.8334846173E+05      0.3684443962E+06      0.3766169295E+01     -0.2390260194E+01
          0                 2          10            57   98     2      -0.3188715201E+00      92   52    1       0.8284487606E+04      0.3679934893E+05      0.3684443962E+06     -0.3188715201E+00
          0                 3           5            57   98     2       0.2658844809E-01      57   98    3      -0.1310953480E+03      0.1805119366E+03      0.3679934893E+05      0.2658844809E-01
          0                 4           2            25   77     2       0.4505053241E-03      57   98    3      -0.9647997916E+00      0.1394286986E+01      0.1805119366E+03      0.4505053241E-03

    ------------------------------------------------
       NWT REQUIRED            4 OUTER ITERATIONS 
       AND A TOTAL OF         28 INNER ITERATIONS.
    ------------------------------------------------

 NO OUTPUT CONTROL FOR STRESS PERIOD   49   TIME STEP    2

 SOLVING FOR HEAD 
                                                   Max.-Head-Change                        Max.-Flux-Residual
  Residual-Control   Outer-Iter.   Inner-Iter.     Column Row Layer    Max.-Head-Change    Column Row Layer    Max.-Flux-Residual            L2-New               L2-Old           Solver-Max-Delh
          0                 1          11            57   98     2      -0.5161062436E+01      92   52    1      -0.7953450585E+05      0.3373404284E+06      0.1394286986E+01     -0.5161062436E+01
          0                 2          10            57   98     2       0.4301877018E+00      92   52    1       0.7912671528E+04      0.3413812176E+05      0.3373404284E+06      0.4301877018E+00
          0                 3           5            57   98     2       0.3228359949E-02      57   98    2       0.1286244934E+02      0.1738676497E+02      0.3413812176E+05      0.3228359949E-02

    ------------------------------------------------
       NWT REQUIRED            3 OUTER ITERATIONS 
       AND A TOTAL OF         26 INNER ITERATIONS.
    ------------------------------------------------

 NO OUTPUT CONTROL FOR STRESS PERIOD   49   TIME STEP    3

 SOLVING FOR HEAD 
                                                   Max.-Head-Change                        Max.-Flux-Residual
  Residual-Control   Outer-Iter.   Inner-Iter.     Column Row Layer    Max.-Head-Change    Column Row Layer    Max.-Flux-Residual            L2-New               L2-Old           Solver-Max-Delh
          0                 1          11            92   52     1      -0.2211867941E+01      92   52    1      -0.7631622622E+05      0.3181719499E+06      0.1738676497E+02     -0.2211867941E+01
          0                 2          10            92   52     1       0.2004407486E+00      92   52    1       0.7598444852E+04      0.3177295609E+05      0.3181719499E+06      0.2004407486E+00
          0                 3           5            25   77     2       0.1948168143E-02      55   97    2       0.3472323636E+01      0.1069706755E+02      0.3177295609E+05      0.1948168143E-02

    ------------------------------------------------
       NWT REQUIRED            3 OUTER ITERATIONS 
       AND A TOTAL OF         26 INNER ITERATIONS.
    ------------------------------------------------

 NO OUTPUT CONTROL FOR STRESS PERIOD   49   TIME STEP    4

 SOLVING FOR HEAD 
                                                   Max.-Head-Change                        Max.-Flux-Residual
  Residual-Control   Outer-Iter.   Inner-Iter.     Column Row Layer    Max.-Head-Change    Column Row Layer    Max.-Flux-Residual            L2-New               L2-Old           Solver-Max-Delh
          0                 1          11            92   52     1      -0.2142137433E+01      92   52    1      -0.7358730233E+05      0.3041983798E+06      0.1069706755E+02     -0.2142137433E+01
          0                 2           9            54  107     3       0.3985085613E+00      54  107    3       0.9673755301E+04      0.3199786290E+05      0.3041983798E+06      0.3985085613E+00
          0                 3           6            70   19     2       0.1409584942E-01      70   19    2       0.1670147454E+03      0.2456865406E+03      0.3199786290E+05      0.1409584942E-01
          0                 4           2            25   77     2       0.4540041247E-03      54  107    3      -0.8913240023E-01      0.1671769372E+00      0.2456865406E+03      0.4540041247E-03

    ------------------------------------------------
       NWT REQUIRED            4 OUTER ITERATIONS 
       AND A TOTAL OF         28 INNER ITERATIONS.
    ------------------------------------------------

 NO OUTPUT CONTROL FOR STRESS PERIOD   49   TIME STEP    5

 SOLVING FOR HEAD 
                                                   Max.-Head-Change                        Max.-Flux-Residual
  Residual-Control   Outer-Iter.   Inner-Iter.     Column Row Layer    Max.-Head-Change    Column Row Layer    Max.-Flux-Residual            L2-New               L2-Old           Solver-Max-Delh
          0                 1          11            92   52     1      -0.2082452184E+01      92   52    1      -0.7126301938E+05      0.2935052453E+06      0.1671769372E+00     -0.2082452184E+01
          0                 2          10            92   52     1       0.1888840653E+00      70   19    2       0.7557150067E+04      0.3029389934E+05      0.2935052453E+06      0.1888840653E+00
          0                 3           5            25   77     2       0.1919594418E-02      55   97    2       0.3310608713E+01      0.1017659232E+02      0.3029389934E+05      0.1919594418E-02

    ------------------------------------------------
       NWT REQUIRED            3 OUTER ITERATIONS 
       AND A TOTAL OF         26 INNER ITERATIONS.
    ------------------------------------------------

 NO OUTPUT CONTROL FOR STRESS PERIOD   49   TIME STEP    6

 SOLVING FOR HEAD 
                                                   Max.-Head-Change                        Max.-Flux-Residual
  Residual-Control   Outer-Iter.   Inner-Iter.     Column Row Layer    Max.-Head-Change    Column Row Layer    Max.-Flux-Residual            L2-New               L2-Old           Solver-Max-Delh
          0                 1          11            92   52     1      -0.2031094030E+01      92   52    1      -0.6927374696E+05      0.2849724162E+06      0.1017659232E+02     -0.2031094030E+01
          0                 2           9            92   52     1       0.1842899977E+00      92   52    1       0.6909067844E+04      0.2848874345E+05      0.2849724162E+06      0.1842899977E+00
          0                 3           5            25   77     2       0.1929944572E-02      55   97    2       0.3234424213E+01      0.1013154275E+02      0.2848874345E+05      0.1929944572E-02

    ------------------------------------------------
       NWT REQUIRED            3 OUTER ITERATIONS 
       AND A TOTAL OF         25 INNER ITERATIONS.
    ------------------------------------------------

 NO OUTPUT CONTROL FOR STRESS PERIOD   49   TIME STEP    7

 SOLVING FOR HEAD 
                                                   Max.-Head-Change                        Max.-Flux-Residual
  Residual-Control   Outer-Iter.   Inner-Iter.     Column Row Layer    Max.-Head-Change    Column Row Layer    Max.-Flux-Residual            L2-New               L2-Old           Solver-Max-Delh
          0                 1          11            92   52     1      -0.1986645816E+01      92   52    1      -0.6756213779E+05      0.2779453442E+06      0.1013154275E+02     -0.1986645816E+01
          0                 2           9            80   53     1      -0.4008982969E+00      92   52    1       0.6741096563E+04      0.2783855028E+05      0.2779453442E+06     -0.4008982969E+00
          0                 3           5            80   53     1       0.3409996464E-01      80   53    1       0.1654647594E+03      0.1778016177E+03      0.2783855028E+05      0.3409996464E-01
          0                 4           2            25   77     2       0.4482407607E-03      80   53    1       0.9558122214E+00      0.1023778177E+01      0.1778016177E+03      0.4482407607E-03

    ------------------------------------------------
       NWT REQUIRED            4 OUTER ITERATIONS 
       AND A TOTAL OF         27 INNER ITERATIONS.
    ------------------------------------------------

 NO OUTPUT CONTROL FOR STRESS PERIOD   49   TIME STEP    8

 SOLVING FOR HEAD 
                                                   Max.-Head-Change                        Max.-Flux-Residual
  Residual-Control   Outer-Iter.   Inner-Iter.     Column Row Layer    Max.-Head-Change    Column Row Layer    Max.-Flux-Residual            L2-New               L2-Old           Solver-Max-Delh
          0                 1          11            92   52     1      -0.1947936848E+01      92   52    1      -0.6608091427E+05      0.2719955905E+06      0.1023778177E+01     -0.1947936848E+01
          0                 2           9            92   52     1       0.1768403645E+00      92   52    1       0.6595573533E+04      0.2732815196E+05      0.2719955905E+06      0.1768403645E+00
          0                 3           5            25   77     2       0.1889270450E-02      55   97    2       0.3090575933E+01      0.9602971783E+01      0.2732815196E+05      0.1889270450E-02

    ------------------------------------------------
       NWT REQUIRED            3 OUTER ITERATIONS 
       AND A TOTAL OF         25 INNER ITERATIONS.
    ------------------------------------------------

 NO OUTPUT CONTROL FOR STRESS PERIOD   49   TIME STEP    9

 SOLVING FOR HEAD 
                                                   Max.-Head-Change                        Max.-Flux-Residual
  Residual-Control   Outer-Iter.   Inner-Iter.     Column Row Layer    Max.-Head-Change    Column Row Layer    Max.-Flux-Residual            L2-New               L2-Old           Solver-Max-Delh
          0                 1          11            92   52     1      -0.1914002279E+01      92   52    1      -0.6479103061E+05      0.2668231300E+06      0.9602971783E+01     -0.1914002279E+01
          0                 2           9            92   52     1       0.1737962154E+00      92   52    1       0.6468712572E+04      0.2672118306E+05      0.2668231300E+06      0.1737962154E+00
          0                 3           5            25   77     2       0.1894031054E-02      70   47    1       0.3957467572E+02      0.4067999832E+02      0.2672118306E+05      0.1894031054E-02

    ------------------------------------------------
       NWT REQUIRED            3 OUTER ITERATIONS 
       AND A TOTAL OF         25 INNER ITERATIONS.
    ------------------------------------------------

 NO OUTPUT CONTROL FOR STRESS PERIOD   49   TIME STEP   10

 SOLVING FOR HEAD 
                                                   Max.-Head-Change                        Max.-Flux-Residual
  Residual-Control   Outer-Iter.   Inner-Iter.     Column Row Layer    Max.-Head-Change    Column Row Layer    Max.-Flux-Residual            L2-New               L2-Old           Solver-Max-Delh
          0                 1          11            92   52     1      -0.1884041984E+01      92   52    1      -0.6366027609E+05      0.2621446226E+06      0.4067999832E+02     -0.1884041984E+01
          0                 2           9            92   52     1       0.1711057346E+00      92   52    1       0.6357384934E+04      0.2637847254E+05      0.2621446226E+06      0.1711057346E+00
          0                 3           5            25   77     2       0.1879199432E-02      55   97    2       0.2957020471E+01      0.9295620920E+01      0.2637847254E+05      0.1879199432E-02

    ------------------------------------------------
       NWT REQUIRED            3 OUTER ITERATIONS 
       AND A TOTAL OF         25 INNER ITERATIONS.
    ------------------------------------------------

 NO OUTPUT CONTROL FOR STRESS PERIOD   49   TIME STEP   11

 SOLVING FOR HEAD 
                                                   Max.-Head-Change                        Max.-Flux-Residual
  Residual-Control   Outer-Iter.   Inner-Iter.     Column Row Layer    Max.-Head-Change    Column Row Layer    Max.-Flux-Residual            L2-New               L2-Old           Solver-Max-Delh
          0                 1          11            92   52     1      -0.1857395737E+01      92   52    1      -0.6266200786E+05      0.2578304495E+06      0.9295620920E+01     -0.1857395737E+01
          0                 2           9            89   52     1       0.1879006696E+00      89   52    1       0.7681423871E+04      0.2649710504E+05      0.2578304495E+06      0.1879006696E+00
          0                 3           5            25   77     2       0.1863036729E-02      55   97    2       0.2893773520E+01      0.9363193721E+01      0.2649710504E+05      0.1863036729E-02

    ------------------------------------------------
       NWT REQUIRED            3 OUTER ITERATIONS 
       AND A TOTAL OF         25 INNER ITERATIONS.
    ------------------------------------------------

 OUTPUT CONTROL FOR STRESS PERIOD   49   TIME STEP   12
    SAVE BUDGET
    SAVE HEAD FOR LAYERS:   1  2  3
 UBDSV1 SAVING "         STORAGE" ON UNIT  39 AT TIME STEP 12, STRESS PERIOD  49
 UBDSV2 SAVING "   CONSTANT HEAD" ON UNIT  39 AT TIME STEP 12, STRESS PERIOD  49
 UBDSV1 SAVING "FLOW RIGHT FACE " ON UNIT  39 AT TIME STEP 12, STRESS PERIOD  49
 UBDSV1 SAVING "FLOW FRONT FACE " ON UNIT  39 AT TIME STEP 12, STRESS PERIOD  49
 UBDSV1 SAVING "FLOW LOWER FACE " ON UNIT  39 AT TIME STEP 12, STRESS PERIOD  49
 UBDSV3 SAVING "              ET" ON UNIT  39 AT TIME STEP 12, STRESS PERIOD  49
 UBDSV3 SAVING "        RECHARGE" ON UNIT  39 AT TIME STEP 12, STRESS PERIOD  49

 HEAD WILL BE SAVED ON UNIT   31 AT END OF TIME STEP   12, STRESS PERIOD   49
1
  VOLUMETRIC BUDGET FOR ENTIRE MODEL AT END OF TIME STEP   12, STRESS PERIOD  49
  ------------------------------------------------------------------------------

     CUMULATIVE VOLUMES      L**3       RATES FOR THIS TIME STEP      L**3/T
     ------------------                 ------------------------

           IN:                                      IN:
           ---                                      ---
             STORAGE = 47350607872.0000               STORAGE =     5479462.5000
       CONSTANT HEAD = 17036896256.0000         CONSTANT HEAD =     1351127.8750
               WELLS =   324179520.0000                 WELLS =           0.0000
                  ET =           0.0000                    ET =           0.0000
            RECHARGE =358446891008.0000              RECHARGE =    18226870.0000

            TOTAL IN =423158579200.0000              TOTAL IN =    25057460.0000

          OUT:                                     OUT:
          ----                                     ----
             STORAGE =114826911744.0000               STORAGE =     3936961.0000
       CONSTANT HEAD =118488276992.0000         CONSTANT HEAD =     7655026.0000
               WELLS =   637541056.0000                 WELLS =        1114.0000
                  ET =189206380544.0000                    ET =    13464384.0000
            RECHARGE =           0.0000              RECHARGE =           0.0000

           TOTAL OUT =423159103488.0000             TOTAL OUT =    25057484.0000

            IN - OUT =     -524288.0000              IN - OUT =         -24.0000

 PERCENT DISCREPANCY =          -0.00     PERCENT DISCREPANCY =          -0.00






         TIME SUMMARY AT END OF TIME STEP   12 IN STRESS PERIOD   49
                    SECONDS     MINUTES      HOURS       DAYS        YEARS
                    -----------------------------------------------------------
   TIME STEP LENGTH 2.63520E+06  43920.      732.00      30.500     8.35044E-02
 STRESS PERIOD TIME 3.16224E+07 5.27040E+05  8784.0      366.00      1.0021    
         TOTAL TIME 1.54639E+09 2.57732E+07 4.29553E+05  17898.      49.002    
1
1
                            STRESS PERIOD NO.   50, LENGTH =   365.0000    
                            -----------------------------------------------

                              NUMBER OF TIME STEPS =    12

                               MULTIPLIER FOR DELT =     1.000

                            INITIAL TIME STEP SIZE =   30.41667    

 WELL NO.  LAYER   ROW   COL   STRESS RATE         
 --------------------------------------------------
      1      1     58     59     -0.1392E+05

      1 WELL 

 REUSING SURF FROM LAST STRESS PERIOD

 REUSING EVTR FROM LAST STRESS PERIOD

 REUSING EXDP FROM LAST STRESS PERIOD



                           RECHARGE
 READING ON UNIT   16 WITH FORMAT: (15F5.0)            


     63 TIME-VARIANT SPECIFIED-HEAD CELLS

 SOLVING FOR HEAD 
                                                   Max.-Head-Change                        Max.-Flux-Residual
  Residual-Control   Outer-Iter.   Inner-Iter.     Column Row Layer    Max.-Head-Change    Column Row Layer    Max.-Flux-Residual            L2-New               L2-Old           Solver-Max-Delh
          0                 1          11            13   85     1       0.9579547389E+01      81   46    1      -0.9146542506E+05      0.4310763639E+06      0.9363193721E+01      0.9579547389E+01
          0                 2          10            77   45     2       0.9297104160E+00      77   45    2       0.3000486528E+05      0.5294316686E+05      0.4310763639E+06      0.9297104160E+00
          0                 3           5            13   85     1      -0.1263109546E-01      18   74    2      -0.6391845782E+02      0.9047995200E+02      0.5294316686E+05     -0.1263109546E-01
          0                 4           2            13   85     1      -0.9321245939E-03      58   71    2       0.5104420632E+00      0.1137347745E+01      0.9047995200E+02     -0.9321245939E-03

    ------------------------------------------------
       NWT REQUIRED            4 OUTER ITERATIONS 
       AND A TOTAL OF         28 INNER ITERATIONS.
    ------------------------------------------------

 NO OUTPUT CONTROL FOR STRESS PERIOD   50   TIME STEP    1

 SOLVING FOR HEAD 
                                                   Max.-Head-Change                        Max.-Flux-Residual
  Residual-Control   Outer-Iter.   Inner-Iter.     Column Row Layer    Max.-Head-Change    Column Row Layer    Max.-Flux-Residual            L2-New               L2-Old           Solver-Max-Delh
          0                 1          11            81   45     1      -0.3089542576E+01      81   46    1      -0.8868041027E+05      0.3696147521E+06      0.1137347745E+01     -0.3089542576E+01
          0                 2           9            81   45     1       0.2785491661E+00      81   46    1       0.8853897173E+04      0.3740395050E+05      0.3696147521E+06      0.2785491661E+00
          0                 3           5            14    7     2      -0.2669710391E-02      14    7    2      -0.2426850425E+03      0.2692004839E+03      0.3740395050E+05     -0.2669710391E-02

    ------------------------------------------------
       NWT REQUIRED            3 OUTER ITERATIONS 
       AND A TOTAL OF         25 INNER ITERATIONS.
    ------------------------------------------------

 NO OUTPUT CONTROL FOR STRESS PERIOD   50   TIME STEP    2

 SOLVING FOR HEAD 
                                                   Max.-Head-Change                        Max.-Flux-Residual
  Residual-Control   Outer-Iter.   Inner-Iter.     Column Row Layer    Max.-Head-Change    Column Row Layer    Max.-Flux-Residual            L2-New               L2-Old           Solver-Max-Delh
          0                 1          11            81   45     1      -0.2985326847E+01      81   46    1      -0.8608894155E+05      0.3452670633E+06      0.2692004839E+03     -0.2985326847E+01
          0                 2          10            81   45     1       0.2697900368E+00      81   46    1       0.8553344497E+04      0.3453726782E+05      0.3452670633E+06      0.2697900368E+00
          0                 3           5            25   77     2       0.1811750005E-02      55   97    2       0.2716638800E+01      0.1123931760E+02      0.3453726782E+05      0.1811750005E-02

    ------------------------------------------------
       NWT REQUIRED            3 OUTER ITERATIONS 
       AND A TOTAL OF         26 INNER ITERATIONS.
    ------------------------------------------------

 NO OUTPUT CONTROL FOR STRESS PERIOD   50   TIME STEP    3

 SOLVING FOR HEAD 
                                                   Max.-Head-Change                        Max.-Flux-Residual
  Residual-Control   Outer-Iter.   Inner-Iter.     Column Row Layer    Max.-Head-Change    Column Row Layer    Max.-Flux-Residual            L2-New               L2-Old           Solver-Max-Delh
          0                 1          11            81   45     1      -0.2888665822E+01      81   46    1      -0.8365325509E+05      0.3298602821E+06      0.1123931760E+02     -0.2888665822E+01
          0                 2          10            81   45     1       0.2623952119E+00      81   46    1       0.8356376696E+04      0.3481832979E+05      0.3298602821E+06      0.2623952119E+00
          0                 3           5            25   77     2       0.1791952346E-02      27   12    2      -0.5965399866E+02      0.6890848167E+02      0.3481832979E+05      0.1791952346E-02

    ------------------------------------------------
       NWT REQUIRED            3 OUTER ITERATIONS 
       AND A TOTAL OF         26 INNER ITERATIONS.
    ------------------------------------------------

 NO OUTPUT CONTROL FOR STRESS PERIOD   50   TIME STEP    4

 SOLVING FOR HEAD 
                                                   Max.-Head-Change                        Max.-Flux-Residual
  Residual-Control   Outer-Iter.   Inner-Iter.     Column Row Layer    Max.-Head-Change    Column Row Layer    Max.-Flux-Residual            L2-New               L2-Old           Solver-Max-Delh
          0                 1          11            81   45     1      -0.2795079428E+01      81   46    1      -0.8134275341E+05      0.3183487196E+06      0.6890848167E+02     -0.2795079428E+01
          0                 2          10            81   45     1       0.2539013651E+00      81   46    1       0.8125843865E+04      0.3182109455E+05      0.3183487196E+06      0.2539013651E+00
          0                 3           5            25   78     2       0.1774015021E-02      55   97    2       0.2607600853E+01      0.9634495296E+01      0.3182109455E+05      0.1774015021E-02

    ------------------------------------------------
       NWT REQUIRED            3 OUTER ITERATIONS 
       AND A TOTAL OF         26 INNER ITERATIONS.
    ------------------------------------------------

 NO OUTPUT CONTROL FOR STRESS PERIOD   50   TIME STEP    5

 SOLVING FOR HEAD 
                                                   Max.-Head-Change                        Max.-Flux-Residual
  Residual-Control   Outer-Iter.   Inner-Iter.     Column Row Layer    Max.-Head-Change    Column Row Layer    Max.-Flux-Residual            L2-New               L2-Old           Solver-Max-Delh
          0                 1          11            81   45     1      -0.2705815827E+01      81   46    1      -0.7912255885E+05      0.3090415917E+06      0.9634495296E+01     -0.2705815827E+01
          0                 2          10            81   45     1       0.2457992972E+00      81   46    1       0.7904304080E+04      0.3087837854E+05      0.3090415917E+06      0.2457992972E+00
          0                 3           5            25   78     2       0.1759825111E-02      61   82    1      -0.3879448345E+02      0.3988769068E+02      0.3087837854E+05      0.1759825111E-02

    ------------------------------------------------
       NWT REQUIRED            3 OUTER ITERATIONS 
       AND A TOTAL OF         26 INNER ITERATIONS.
    ------------------------------------------------

 NO OUTPUT CONTROL FOR STRESS PERIOD   50   TIME STEP    6

 SOLVING FOR HEAD 
                                                   Max.-Head-Change                        Max.-Flux-Residual
  Residual-Control   Outer-Iter.   Inner-Iter.     Column Row Layer    Max.-Head-Change    Column Row Layer    Max.-Flux-Residual            L2-New               L2-Old           Solver-Max-Delh
          0                 1          11            81   45     1      -0.2620637513E+01      81   46    1      -0.7698781321E+05      0.3010974900E+06      0.3988769068E+02     -0.2620637513E+01
          0                 2          10            70   19     1      -0.5290239166E+00      81   46    1       0.7691275096E+04      0.3046179641E+05      0.3010974900E+06     -0.5290239166E+00
          0                 3           5            70   19     1       0.4611491530E-01      90   52    1       0.3839193182E+03      0.6134611532E+03      0.3046179641E+05      0.4611491530E-01
          0                 4           2            65  112     2       0.6229574225E-03      65  112    2       0.2499977446E+02      0.2513992969E+02      0.6134611532E+03      0.6229574225E-03

    ------------------------------------------------
       NWT REQUIRED            4 OUTER ITERATIONS 
       AND A TOTAL OF         28 INNER ITERATIONS.
    ------------------------------------------------

 NO OUTPUT CONTROL FOR STRESS PERIOD   50   TIME STEP    7

 SOLVING FOR HEAD 
                                                   Max.-Head-Change                        Max.-Flux-Residual
  Residual-Control   Outer-Iter.   Inner-Iter.     Column Row Layer    Max.-Head-Change    Column Row Layer    Max.-Flux-Residual            L2-New               L2-Old           Solver-Max-Delh
          0                 1          11            81   45     1      -0.2542568240E+01      81   46    1      -0.7493441975E+05      0.2941300304E+06      0.2513992969E+02     -0.2542568240E+01
          0                 2          10            90   52     1       0.2667483955E+00      90   52    1       0.1120871060E+05      0.3093772703E+05      0.2941300304E+06      0.2667483955E+00
          0                 3           5            65  112     2      -0.1643724707E-01      65  112    2      -0.1100880852E+03      0.1247224123E+03      0.3093772703E+05     -0.1643724707E-01
          0                 4           2            25   78     2       0.4141615586E-03      90   52    1      -0.1162735671E+00      0.1850926747E+00      0.1247224123E+03      0.4141615586E-03

    ------------------------------------------------
       NWT REQUIRED            4 OUTER ITERATIONS 
       AND A TOTAL OF         28 INNER ITERATIONS.
    ------------------------------------------------

 NO OUTPUT CONTROL FOR STRESS PERIOD   50   TIME STEP    8

 SOLVING FOR HEAD 
                                                   Max.-Head-Change                        Max.-Flux-Residual
  Residual-Control   Outer-Iter.   Inner-Iter.     Column Row Layer    Max.-Head-Change    Column Row Layer    Max.-Flux-Residual            L2-New               L2-Old           Solver-Max-Delh
          0                 1          11            81   45     1      -0.2467014977E+01      81   46    1      -0.7295887677E+05      0.2869333303E+06      0.1850926747E+00     -0.2467014977E+01
          0                 2          10            81   45     1       0.2238059596E+00      81   46    1       0.7289192162E+04      0.2866328605E+05      0.2869333303E+06      0.2238059596E+00
          0                 3           5            52   47     1       0.6671117919E-02      52   47    1       0.1467825371E+03      0.1507694325E+03      0.2866328605E+05      0.6671117919E-02

    ------------------------------------------------
       NWT REQUIRED            3 OUTER ITERATIONS 
       AND A TOTAL OF         26 INNER ITERATIONS.
    ------------------------------------------------

 NO OUTPUT CONTROL FOR STRESS PERIOD   50   TIME STEP    9

 SOLVING FOR HEAD 
                                                   Max.-Head-Change                        Max.-Flux-Residual
  Residual-Control   Outer-Iter.   Inner-Iter.     Column Row Layer    Max.-Head-Change    Column Row Layer    Max.-Flux-Residual            L2-New               L2-Old           Solver-Max-Delh
          0                 1          11            81   45     1      -0.2395584963E+01      81   46    1      -0.7106024432E+05      0.2803729865E+06      0.1507694325E+03     -0.2395584963E+01
          0                 2          10            81   45     1       0.2177631371E+00      81   46    1       0.7068280160E+04      0.2845776530E+05      0.2803729865E+06      0.2177631371E+00
          0                 3           5            31   38     2      -0.5310633864E-02      31   38    2      -0.1097428183E+03      0.1155169742E+03      0.2845776530E+05     -0.5310633864E-02

    ------------------------------------------------
       NWT REQUIRED            3 OUTER ITERATIONS 
       AND A TOTAL OF         26 INNER ITERATIONS.
    ------------------------------------------------

 NO OUTPUT CONTROL FOR STRESS PERIOD   50   TIME STEP   10

 SOLVING FOR HEAD 
                                                   Max.-Head-Change                        Max.-Flux-Residual
  Residual-Control   Outer-Iter.   Inner-Iter.     Column Row Layer    Max.-Head-Change    Column Row Layer    Max.-Flux-Residual            L2-New               L2-Old           Solver-Max-Delh
          0                 1          11            81   45     1      -0.2326437791E+01      81   46    1      -0.6924753214E+05      0.2742504273E+06      0.1155169742E+03     -0.2326437791E+01
          0                 2          10            81   45     1       0.2114202459E+00      81   46    1       0.6920322168E+04      0.2793571829E+05      0.2742504273E+06      0.2114202459E+00
          0                 3           5            25   78     2       0.1676530250E-02      55   97    2       0.2317863779E+01      0.8718153761E+01      0.2793571829E+05      0.1676530250E-02

    ------------------------------------------------
       NWT REQUIRED            3 OUTER ITERATIONS 
       AND A TOTAL OF         26 INNER ITERATIONS.
    ------------------------------------------------

 NO OUTPUT CONTROL FOR STRESS PERIOD   50   TIME STEP   11

 SOLVING FOR HEAD 
                                                   Max.-Head-Change                        Max.-Flux-Residual
  Residual-Control   Outer-Iter.   Inner-Iter.     Column Row Layer    Max.-Head-Change    Column Row Layer    Max.-Flux-Residual            L2-New               L2-Old           Solver-Max-Delh
          0                 1          11            81   45     1      -0.2260061528E+01      81   46    1      -0.6750939290E+05      0.2682316725E+06      0.8718153761E+01     -0.2260061528E+01
          0                 2          10            57   97     2      -0.1581441999E+01      81   46    1       0.6746596014E+04      0.2733483555E+05      0.2682316725E+06     -0.1581441999E+01
          0                 3           5            57   97     2       0.1315279519E+00      57   97    2       0.4457608976E+03      0.4575113725E+03      0.2733483555E+05      0.1315279519E+00
          0                 4           2            57   97     2       0.1016296692E-02      57   97    2       0.3362611370E+01      0.3394504216E+01      0.4575113725E+03      0.1016296692E-02

    ------------------------------------------------
       NWT REQUIRED            4 OUTER ITERATIONS 
       AND A TOTAL OF         28 INNER ITERATIONS.
    ------------------------------------------------

 OUTPUT CONTROL FOR STRESS PERIOD   50   TIME STEP   12
    SAVE BUDGET
 UBDSV1 SAVING "         STORAGE" ON UNIT  39 AT TIME STEP 12, STRESS PERIOD  50
 UBDSV2 SAVING "   CONSTANT HEAD" ON UNIT  39 AT TIME STEP 12, STRESS PERIOD  50
 UBDSV1 SAVING "FLOW RIGHT FACE " ON UNIT  39 AT TIME STEP 12, STRESS PERIOD  50
 UBDSV1 SAVING "FLOW FRONT FACE " ON UNIT  39 AT TIME STEP 12, STRESS PERIOD  50
 UBDSV1 SAVING "FLOW LOWER FACE " ON UNIT  39 AT TIME STEP 12, STRESS PERIOD  50
 UBDSV3 SAVING "              ET" ON UNIT  39 AT TIME STEP 12, STRESS PERIOD  50
 UBDSV3 SAVING "        RECHARGE" ON UNIT  39 AT TIME STEP 12, STRESS PERIOD  50
1
  VOLUMETRIC BUDGET FOR ENTIRE MODEL AT END OF TIME STEP   12, STRESS PERIOD  50
  ------------------------------------------------------------------------------

     CUMULATIVE VOLUMES      L**3       RATES FOR THIS TIME STEP      L**3/T
     ------------------                 ------------------------

           IN:                                      IN:
           ---                                      ---
             STORAGE = 49766948864.0000               STORAGE =     5970013.5000
       CONSTANT HEAD = 17534402560.0000         CONSTANT HEAD =     1373128.7500
               WELLS =   324179520.0000                 WELLS =           0.0000
                  ET =           0.0000                    ET =           0.0000
            RECHARGE =364421414912.0000              RECHARGE =    16368261.0000

            TOTAL IN =432046931968.0000              TOTAL IN =    23711404.0000

          OUT:                                     OUT:
          ----                                     ----
             STORAGE =116291133440.0000               STORAGE =     3857012.7500
       CONSTANT HEAD =121280962560.0000         CONSTANT HEAD =     7649713.0000
               WELLS =   642622912.0000                 WELLS =       13922.0000
                  ET =193832665088.0000                    ET =    12190781.0000
            RECHARGE =           0.0000              RECHARGE =           0.0000

           TOTAL OUT =432047390720.0000             TOTAL OUT =    23711428.0000

            IN - OUT =     -458752.0000              IN - OUT =         -24.0000

 PERCENT DISCREPANCY =          -0.00     PERCENT DISCREPANCY =          -0.00






         TIME SUMMARY AT END OF TIME STEP   12 IN STRESS PERIOD   50
                    SECONDS     MINUTES      HOURS       DAYS        YEARS
                    -----------------------------------------------------------
   TIME STEP LENGTH 2.62800E+06  43800.      730.00      30.417     8.32763E-02
 STRESS PERIOD TIME 3.15360E+07 5.25600E+05  8760.0      365.00     0.99932    
         TOTAL TIME 1.57793E+09 2.62988E+07 4.38313E+05  18263.      50.001    
1
1
                            STRESS PERIOD NO.   51, LENGTH =   365.0000    
                            -----------------------------------------------

                              NUMBER OF TIME STEPS =    12

                               MULTIPLIER FOR DELT =     1.000

                            INITIAL TIME STEP SIZE =   30.41667    

 WELL NO.  LAYER   ROW   COL   STRESS RATE         
 --------------------------------------------------
      1      1     59     59     -0.1392E+05

      1 WELL 

 REUSING SURF FROM LAST STRESS PERIOD

 REUSING EVTR FROM LAST STRESS PERIOD

 REUSING EXDP FROM LAST STRESS PERIOD



                           RECHARGE
 READING ON UNIT   16 WITH FORMAT: (15F5.0)            


     63 TIME-VARIANT SPECIFIED-HEAD CELLS

 SOLVING FOR HEAD 
                                                   Max.-Head-Change                        Max.-Flux-Residual
  Residual-Control   Outer-Iter.   Inner-Iter.     Column Row Layer    Max.-Head-Change    Column Row Layer    Max.-Flux-Residual            L2-New               L2-Old           Solver-Max-Delh
          0                 1          11            92   77     2       0.2197225791E+02      58   71    1      -0.1087421520E+06      0.5232485311E+06      0.3394504216E+01      0.2197225791E+02
          0                 2          10            92   77     2       0.1538781649E+02      58   71    1       0.1066317700E+05      0.5333659045E+05      0.5232485311E+06      0.1538781649E+02
          0                 3           6            92   77     2      -0.1626233742E+00      21   37    2       0.4139106827E+03      0.4261347533E+03      0.5333659045E+05     -0.1626233742E+00
          0                 4           5            92   77     2      -0.1317344338E-01      21   37    2       0.3724769836E+02      0.3756779137E+02      0.4261347533E+03     -0.1317344338E-01
          0                 5           3            92   77     2      -0.1065774736E-02      21   37    2       0.3348535344E+01      0.3372492773E+01      0.3756779137E+02     -0.1065774736E-02

    ------------------------------------------------
       NWT REQUIRED            5 OUTER ITERATIONS 
       AND A TOTAL OF         35 INNER ITERATIONS.
    ------------------------------------------------

 NO OUTPUT CONTROL FOR STRESS PERIOD   51   TIME STEP    1

 SOLVING FOR HEAD 
                                                   Max.-Head-Change                        Max.-Flux-Residual
  Residual-Control   Outer-Iter.   Inner-Iter.     Column Row Layer    Max.-Head-Change    Column Row Layer    Max.-Flux-Residual            L2-New               L2-Old           Solver-Max-Delh
          0                 1          11            53  107     3       0.1753931460E+01      79   49    1       0.7289114265E+05      0.3598035879E+06      0.3372492773E+01      0.1753931460E+01
          0                 2          10            90   66     1      -0.2570259759E+00      79   49    1      -0.7317416901E+04      0.3634471013E+05      0.3598035879E+06     -0.2570259759E+00
          0                 3           6            90   66     1       0.2212165452E-01      21   37    2      -0.2221308456E+03      0.3131046447E+03      0.3634471013E+05      0.2212165452E-01
          0                 4           2            27   79     2       0.3954322587E-03      90   66    1       0.8632927351E+00      0.1001568752E+01      0.3131046447E+03      0.3954322587E-03

    ------------------------------------------------
       NWT REQUIRED            4 OUTER ITERATIONS 
       AND A TOTAL OF         29 INNER ITERATIONS.
    ------------------------------------------------

 NO OUTPUT CONTROL FOR STRESS PERIOD   51   TIME STEP    2

 SOLVING FOR HEAD 
                                                   Max.-Head-Change                        Max.-Flux-Residual
  Residual-Control   Outer-Iter.   Inner-Iter.     Column Row Layer    Max.-Head-Change    Column Row Layer    Max.-Flux-Residual            L2-New               L2-Old           Solver-Max-Delh
          0                 1          11            53  107     3       0.1559800608E+01      79   49    1       0.5161186566E+05      0.2895392299E+06      0.1001568752E+01      0.1559800608E+01
          0                 2          10            53  107     3      -0.1420437055E+00      83   51    1      -0.5248953372E+04      0.2911097605E+05      0.2895392299E+06     -0.1420437055E+00
          0                 3           5            86   53     1       0.2271686402E-02      92   79    3       0.5811572451E+01      0.1292242688E+02      0.2911097605E+05      0.2271686402E-02

    ------------------------------------------------
       NWT REQUIRED            3 OUTER ITERATIONS 
       AND A TOTAL OF         26 INNER ITERATIONS.
    ------------------------------------------------

 NO OUTPUT CONTROL FOR STRESS PERIOD   51   TIME STEP    3

 SOLVING FOR HEAD 
                                                   Max.-Head-Change                        Max.-Flux-Residual
  Residual-Control   Outer-Iter.   Inner-Iter.     Column Row Layer    Max.-Head-Change    Column Row Layer    Max.-Flux-Residual            L2-New               L2-Old           Solver-Max-Delh
          0                 1          11            53  107     3       0.1391347665E+01      85   52    1       0.3877765737E+05      0.2483951112E+06      0.1292242688E+02      0.1391347665E+01
          0                 2          10            53  107     3      -0.1266727791E+00      85   52    1      -0.3898434323E+04      0.2484501190E+05      0.2483951112E+06     -0.1266727791E+00
          0                 3           5            85   62     2      -0.1068741752E-01      85   62    2      -0.3637344635E+02      0.5150032679E+02      0.2484501190E+05     -0.1068741752E-01
          0                 4           2            27   79     2       0.4041410435E-03      26   77    2       0.3184440327E-01      0.1249378306E+00      0.5150032679E+02      0.4041410435E-03

    ------------------------------------------------
       NWT REQUIRED            4 OUTER ITERATIONS 
       AND A TOTAL OF         28 INNER ITERATIONS.
    ------------------------------------------------

 NO OUTPUT CONTROL FOR STRESS PERIOD   51   TIME STEP    4

 SOLVING FOR HEAD 
                                                   Max.-Head-Change                        Max.-Flux-Residual
  Residual-Control   Outer-Iter.   Inner-Iter.     Column Row Layer    Max.-Head-Change    Column Row Layer    Max.-Flux-Residual            L2-New               L2-Old           Solver-Max-Delh
          0                 1          11            53  107     3       0.1243991277E+01      85   52    1       0.3077704466E+05      0.2208597876E+06      0.1249378306E+00      0.1243991277E+01
          0                 2          10            53  107     3      -0.1132349626E+00      85   52    1      -0.3090273325E+04      0.2206396282E+05      0.2208597876E+06     -0.1132349626E+00
          0                 3           5            26   77     2       0.1627782126E-02      88   51    2      -0.9217574820E+01      0.1526626653E+02      0.2206396282E+05      0.1627782126E-02

    ------------------------------------------------
       NWT REQUIRED            3 OUTER ITERATIONS 
       AND A TOTAL OF         26 INNER ITERATIONS.
    ------------------------------------------------

 NO OUTPUT CONTROL FOR STRESS PERIOD   51   TIME STEP    5

 SOLVING FOR HEAD 
                                                   Max.-Head-Change                        Max.-Flux-Residual
  Residual-Control   Outer-Iter.   Inner-Iter.     Column Row Layer    Max.-Head-Change    Column Row Layer    Max.-Flux-Residual            L2-New               L2-Old           Solver-Max-Delh
          0                 1          11            53  107     3       0.1114326928E+01      91   51    1      -0.2465857575E+05      0.2013917386E+06      0.1526626653E+02      0.1114326928E+01
          0                 2          10            53  107     3      -0.1014159651E+00      22   38    1      -0.3638243062E+04      0.2060711455E+05      0.2013917386E+06     -0.1014159651E+00
          0                 3           5            26   77     2       0.1638135049E-02      55   97    2       0.2045081886E+01      0.7686949819E+01      0.2060711455E+05      0.1638135049E-02

    ------------------------------------------------
       NWT REQUIRED            3 OUTER ITERATIONS 
       AND A TOTAL OF         26 INNER ITERATIONS.
    ------------------------------------------------

 NO OUTPUT CONTROL FOR STRESS PERIOD   51   TIME STEP    6

 SOLVING FOR HEAD 
                                                   Max.-Head-Change                        Max.-Flux-Residual
  Residual-Control   Outer-Iter.   Inner-Iter.     Column Row Layer    Max.-Head-Change    Column Row Layer    Max.-Flux-Residual            L2-New               L2-Old           Solver-Max-Delh
          0                 1          11            53  107     3       0.9997282105E+00      91   51    1      -0.2138620625E+05      0.1871028244E+06      0.7686949819E+01      0.9997282105E+00
          0                 2           9            89   67     2       0.1168409417E+00      89   67    2       0.4836330451E+04      0.1943289793E+05      0.1871028244E+06      0.1168409417E+00
          0                 3           6            16   27     2      -0.4257479936E-02      16   27    2      -0.1103541277E+03      0.1898057853E+03      0.1943289793E+05     -0.4257479936E-02

    ------------------------------------------------
       NWT REQUIRED            3 OUTER ITERATIONS 
       AND A TOTAL OF         26 INNER ITERATIONS.
    ------------------------------------------------

 NO OUTPUT CONTROL FOR STRESS PERIOD   51   TIME STEP    7

 SOLVING FOR HEAD 
                                                   Max.-Head-Change                        Max.-Flux-Residual
  Residual-Control   Outer-Iter.   Inner-Iter.     Column Row Layer    Max.-Head-Change    Column Row Layer    Max.-Flux-Residual            L2-New               L2-Old           Solver-Max-Delh
          0                 1          11            55   97     3      -0.9121875190E+00      55   97    3      -0.1938117564E+05      0.1762707906E+06      0.1898057853E+03     -0.9121875190E+00
          0                 2          10            55   97     3       0.8188837296E-01      79   50    1      -0.3192879435E+04      0.1787062624E+05      0.1762707906E+06      0.8188837296E-01
          0                 3           5            26   77     2       0.1624891565E-02      88   53    1       0.1984051511E+01      0.7834665379E+01      0.1787062624E+05      0.1624891565E-02

    ------------------------------------------------
       NWT REQUIRED            3 OUTER ITERATIONS 
       AND A TOTAL OF         26 INNER ITERATIONS.
    ------------------------------------------------

 NO OUTPUT CONTROL FOR STRESS PERIOD   51   TIME STEP    8

 SOLVING FOR HEAD 
                                                   Max.-Head-Change                        Max.-Flux-Residual
  Residual-Control   Outer-Iter.   Inner-Iter.     Column Row Layer    Max.-Head-Change    Column Row Layer    Max.-Flux-Residual            L2-New               L2-Old           Solver-Max-Delh
          0                 1          11            55   97     3      -0.8971462227E+00      55   97    3      -0.1905866332E+05      0.1678034943E+06      0.7834665379E+01     -0.8971462227E+00
          0                 2          10            72   15     1      -0.5092771124E+00      72   15    1      -0.2830946866E+04      0.1701562466E+05      0.1678034943E+06     -0.5092771124E+00
          0                 3           5            72   15     1       0.4390837929E-01      72   15    1       0.2690479911E+03      0.3018570943E+03      0.1701562466E+05      0.4390837929E-01
          0                 4           2            27   79     2       0.4092603786E-03      72   15    1       0.1210804723E+01      0.1219412930E+01      0.3018570943E+03      0.4092603786E-03

    ------------------------------------------------
       NWT REQUIRED            4 OUTER ITERATIONS 
       AND A TOTAL OF         28 INNER ITERATIONS.
    ------------------------------------------------

 NO OUTPUT CONTROL FOR STRESS PERIOD   51   TIME STEP    9

 SOLVING FOR HEAD 
                                                   Max.-Head-Change                        Max.-Flux-Residual
  Residual-Control   Outer-Iter.   Inner-Iter.     Column Row Layer    Max.-Head-Change    Column Row Layer    Max.-Flux-Residual            L2-New               L2-Old           Solver-Max-Delh
          0                 1          11            55   97     3      -0.8824742687E+00      55   97    3      -0.1874422636E+05      0.1610910575E+06      0.1219412930E+01     -0.8824742687E+00
          0                 2          10            55   97     3       0.7922268986E-01      58   82    2       0.3198618763E+04      0.1642862956E+05      0.1610910575E+06      0.7922268986E-01
          0                 3           5            37   17     3      -0.2745488394E-02      37   17    3      -0.3991680620E+02      0.4416720893E+02      0.1642862956E+05     -0.2745488394E-02

    ------------------------------------------------
       NWT REQUIRED            3 OUTER ITERATIONS 
       AND A TOTAL OF         26 INNER ITERATIONS.
    ------------------------------------------------

 NO OUTPUT CONTROL FOR STRESS PERIOD   51   TIME STEP   10

 SOLVING FOR HEAD 
                                                   Max.-Head-Change                        Max.-Flux-Residual
  Residual-Control   Outer-Iter.   Inner-Iter.     Column Row Layer    Max.-Head-Change    Column Row Layer    Max.-Flux-Residual            L2-New               L2-Old           Solver-Max-Delh
          0                 1          11            55   97     3      -0.8681555080E+00      55   97    3      -0.1843752349E+05      0.1556855607E+06      0.4416720893E+02     -0.8681555080E+00
          0                 2          10            58   82     1      -0.8752709609E-01      23   39    1      -0.2231703833E+04      0.1594361290E+05      0.1556855607E+06     -0.8752709609E-01
          0                 3           5            58   82     1       0.7776959092E-02      58   82    1       0.1256440314E+03      0.1320390494E+03      0.1594361290E+05      0.7776959092E-02

    ------------------------------------------------
       NWT REQUIRED            3 OUTER ITERATIONS 
       AND A TOTAL OF         26 INNER ITERATIONS.
    ------------------------------------------------

 NO OUTPUT CONTROL FOR STRESS PERIOD   51   TIME STEP   11

 SOLVING FOR HEAD 
                                                   Max.-Head-Change                        Max.-Flux-Residual
  Residual-Control   Outer-Iter.   Inner-Iter.     Column Row Layer    Max.-Head-Change    Column Row Layer    Max.-Flux-Residual            L2-New               L2-Old           Solver-Max-Delh
          0                 1          11            55   97     3      -0.8541757505E+00      55   97    3      -0.1813819387E+05      0.1511247422E+06      0.1320390494E+03     -0.8541757505E+00
          0                 2          10            21   51     3       0.8421295756E-01      21   51    3       0.2222008261E+04      0.1527739526E+05      0.1511247422E+06      0.8421295756E-01
          0                 3           6            21   51     3      -0.9192301121E-02      21   51    3      -0.2762166562E+03      0.2922653020E+03      0.1527739526E+05     -0.9192301121E-02

    ------------------------------------------------
       NWT REQUIRED            3 OUTER ITERATIONS 
       AND A TOTAL OF         27 INNER ITERATIONS.
    ------------------------------------------------

 OUTPUT CONTROL FOR STRESS PERIOD   51   TIME STEP   12
    SAVE BUDGET
 UBDSV1 SAVING "         STORAGE" ON UNIT  39 AT TIME STEP 12, STRESS PERIOD  51
 UBDSV2 SAVING "   CONSTANT HEAD" ON UNIT  39 AT TIME STEP 12, STRESS PERIOD  51
 UBDSV1 SAVING "FLOW RIGHT FACE " ON UNIT  39 AT TIME STEP 12, STRESS PERIOD  51
 UBDSV1 SAVING "FLOW FRONT FACE " ON UNIT  39 AT TIME STEP 12, STRESS PERIOD  51
 UBDSV1 SAVING "FLOW LOWER FACE " ON UNIT  39 AT TIME STEP 12, STRESS PERIOD  51
 UBDSV3 SAVING "              ET" ON UNIT  39 AT TIME STEP 12, STRESS PERIOD  51
 UBDSV3 SAVING "        RECHARGE" ON UNIT  39 AT TIME STEP 12, STRESS PERIOD  51
1
  VOLUMETRIC BUDGET FOR ENTIRE MODEL AT END OF TIME STEP   12, STRESS PERIOD  51
  ------------------------------------------------------------------------------

     CUMULATIVE VOLUMES      L**3       RATES FOR THIS TIME STEP      L**3/T
     ------------------                 ------------------------

           IN:                                      IN:
           ---                                      ---
             STORAGE = 50839658496.0000               STORAGE =     2353376.7500
       CONSTANT HEAD = 18043803648.0000         CONSTANT HEAD =     1411244.0000
               WELLS =   324179520.0000                 WELLS =           0.0000
                  ET =           0.0000                    ET =           0.0000
            RECHARGE =372482342912.0000              RECHARGE =    22085266.0000

            TOTAL IN =441689997312.0000              TOTAL IN =    25849886.0000

          OUT:                                     OUT:
          ----                                     ----
             STORAGE =118375047168.0000               STORAGE =     4827163.5000
       CONSTANT HEAD =124106752000.0000         CONSTANT HEAD =     7794094.0000
               WELLS =   647704768.0000                 WELLS =       13922.0000
                  ET =198561087488.0000                    ET =    13214732.0000
            RECHARGE =           0.0000              RECHARGE =           0.0000

           TOTAL OUT =441690587136.0000             TOTAL OUT =    25849912.0000

            IN - OUT =     -589824.0000              IN - OUT =         -26.0000

 PERCENT DISCREPANCY =          -0.00     PERCENT DISCREPANCY =          -0.00






         TIME SUMMARY AT END OF TIME STEP   12 IN STRESS PERIOD   51
                    SECONDS     MINUTES      HOURS       DAYS        YEARS
                    -----------------------------------------------------------
   TIME STEP LENGTH 2.62800E+06  43800.      730.00      30.417     8.32763E-02
 STRESS PERIOD TIME 3.15360E+07 5.25600E+05  8760.0      365.00     0.99932    
         TOTAL TIME 1.60946E+09 2.68243E+07 4.47072E+05  18628.      51.001    
1
1
                            STRESS PERIOD NO.   52, LENGTH =   365.0000    
                            -----------------------------------------------

                              NUMBER OF TIME STEPS =    12

                               MULTIPLIER FOR DELT =     1.000

                            INITIAL TIME STEP SIZE =   30.41667    

 WELL NO.  LAYER   ROW   COL   STRESS RATE         
 --------------------------------------------------
      1      1     45     59     -0.5268E+05

      1 WELL 

 REUSING SURF FROM LAST STRESS PERIOD

 REUSING EVTR FROM LAST STRESS PERIOD

 REUSING EXDP FROM LAST STRESS PERIOD



                           RECHARGE
 READING ON UNIT   16 WITH FORMAT: (15F5.0)            


     63 TIME-VARIANT SPECIFIED-HEAD CELLS

 SOLVING FOR HEAD 
                                                   Max.-Head-Change                        Max.-Flux-Residual
  Residual-Control   Outer-Iter.   Inner-Iter.     Column Row Layer    Max.-Head-Change    Column Row Layer    Max.-Flux-Residual            L2-New               L2-Old           Solver-Max-Delh
          0                 1          11            92   77     2      -0.5701254284E+02      79   49    1       0.1212616977E+06      0.6096473664E+06      0.2922653020E+03     -0.5701254284E+02
          0                 2          10            92   77     2       0.1075158572E+02      79   49    1      -0.1221510517E+05      0.6148140164E+05      0.6096473664E+06      0.1075158572E+02
          0                 3           5            92   77     2       0.4685972633E+00      92   77    2       0.3007957851E+03      0.4240317283E+03      0.6148140164E+05      0.4685972633E+00
          0                 4           3            92   77     2       0.1981685418E-01      92   77    2       0.1287585553E+02      0.1330018014E+02      0.4240317283E+03      0.1981685418E-01
          0                 5           2            92   77     2       0.8396117366E-03      92   77    2       0.5454686201E+00      0.6120030395E+00      0.1330018014E+02      0.8396117366E-03

    ------------------------------------------------
       NWT REQUIRED            5 OUTER ITERATIONS 
       AND A TOTAL OF         31 INNER ITERATIONS.
    ------------------------------------------------

 NO OUTPUT CONTROL FOR STRESS PERIOD   52   TIME STEP    1

 SOLVING FOR HEAD 
                                                   Max.-Head-Change                        Max.-Flux-Residual
  Residual-Control   Outer-Iter.   Inner-Iter.     Column Row Layer    Max.-Head-Change    Column Row Layer    Max.-Flux-Residual            L2-New               L2-Old           Solver-Max-Delh
          0                 1          11            81   45     1       0.4005852775E+01      81   45    1       0.1127118209E+06      0.4649185422E+06      0.6120030395E+00      0.4005852775E+01
          0                 2          10            81   45     1      -0.3645725240E+00      81   45    1      -0.1128688889E+05      0.4665494233E+05      0.4649185422E+06     -0.3645725240E+00
          0                 3           6            27   79     2       0.1572057778E-02      31   45    3      -0.2719657502E+02      0.4502562581E+02      0.4665494233E+05      0.1572057778E-02

    ------------------------------------------------
       NWT REQUIRED            3 OUTER ITERATIONS 
       AND A TOTAL OF         27 INNER ITERATIONS.
    ------------------------------------------------

 NO OUTPUT CONTROL FOR STRESS PERIOD   52   TIME STEP    2

 SOLVING FOR HEAD 
                                                   Max.-Head-Change                        Max.-Flux-Residual
  Residual-Control   Outer-Iter.   Inner-Iter.     Column Row Layer    Max.-Head-Change    Column Row Layer    Max.-Flux-Residual            L2-New               L2-Old           Solver-Max-Delh
          0                 1          11            81   45     1       0.3858256514E+01      81   45    1       0.1085367031E+06      0.4011504273E+06      0.4502562581E+02      0.3858256514E+01
          0                 2           9            81   45     1      -0.3507296227E+00      81   45    1      -0.1086985235E+05      0.4020512121E+05      0.4011504273E+06     -0.3507296227E+00
          0                 3           5            27   79     2       0.1599749014E-02      81   45    1      -0.1143204970E+02      0.2013181628E+02      0.4020512121E+05      0.1599749014E-02

    ------------------------------------------------
       NWT REQUIRED            3 OUTER ITERATIONS 
       AND A TOTAL OF         25 INNER ITERATIONS.
    ------------------------------------------------

 NO OUTPUT CONTROL FOR STRESS PERIOD   52   TIME STEP    3

 SOLVING FOR HEAD 
                                                   Max.-Head-Change                        Max.-Flux-Residual
  Residual-Control   Outer-Iter.   Inner-Iter.     Column Row Layer    Max.-Head-Change    Column Row Layer    Max.-Flux-Residual            L2-New               L2-Old           Solver-Max-Delh
          0                 1          11            81   45     1       0.3716861963E+01      81   45    1       0.1045420037E+06      0.3600428365E+06      0.2013181628E+02      0.3716861963E+01
          0                 2           9            54  108     3       0.8495340817E+00      90   66    1      -0.1165712958E+05      0.3898999908E+05      0.3600428365E+06      0.8495340817E+00
          0                 3           6            54  108     3      -0.7721065029E-01      54  108    3      -0.9740010166E+03      0.1032888940E+04      0.3898999908E+05     -0.7721065029E-01
          0                 4           2            27   79     2       0.4143434521E-03      79   50    1       0.3320622593E+00      0.3641241413E+00      0.1032888940E+04      0.4143434521E-03

    ------------------------------------------------
       NWT REQUIRED            4 OUTER ITERATIONS 
       AND A TOTAL OF         28 INNER ITERATIONS.
    ------------------------------------------------

 NO OUTPUT CONTROL FOR STRESS PERIOD   52   TIME STEP    4

 SOLVING FOR HEAD 
                                                   Max.-Head-Change                        Max.-Flux-Residual
  Residual-Control   Outer-Iter.   Inner-Iter.     Column Row Layer    Max.-Head-Change    Column Row Layer    Max.-Flux-Residual            L2-New               L2-Old           Solver-Max-Delh
          0                 1          11            81   45     1       0.3572590747E+01      81   45    1       0.1005993421E+06      0.3306433046E+06      0.3641241413E+00      0.3572590747E+01
          0                 2          10            54  107     3       0.1375350691E+01      54  107    3       0.1307199127E+05      0.3560264009E+05      0.3306433046E+06      0.1375350691E+01
          0                 3           6            54  107     3      -0.1257130407E+00      54  107    3      -0.1299986001E+04      0.1357559157E+04      0.3560264009E+05     -0.1257130407E+00
          0                 4           2            27   79     2       0.4095828785E-03      54  106    2       0.1457504984E+00      0.2749532332E+00      0.1357559157E+04      0.4095828785E-03

    ------------------------------------------------
       NWT REQUIRED            4 OUTER ITERATIONS 
       AND A TOTAL OF         29 INNER ITERATIONS.
    ------------------------------------------------

 NO OUTPUT CONTROL FOR STRESS PERIOD   52   TIME STEP    5

 SOLVING FOR HEAD 
                                                   Max.-Head-Change                        Max.-Flux-Residual
  Residual-Control   Outer-Iter.   Inner-Iter.     Column Row Layer    Max.-Head-Change    Column Row Layer    Max.-Flux-Residual            L2-New               L2-Old           Solver-Max-Delh
          0                 1          11            81   45     1       0.3433424113E+01      81   45    1       0.9676326937E+05      0.3082455609E+06      0.2749532332E+00      0.3433424113E+01
          0                 2           9            81   45     1      -0.3126542368E+00      81   45    1      -0.9697768419E+04      0.3072670159E+05      0.3082455609E+06     -0.3126542368E+00
          0                 3           5            80   48     1       0.3683249511E-02      80   48    1       0.1962060108E+03      0.1964701548E+03      0.3072670159E+05      0.3683249511E-02

    ------------------------------------------------
       NWT REQUIRED            3 OUTER ITERATIONS 
       AND A TOTAL OF         25 INNER ITERATIONS.
    ------------------------------------------------

 NO OUTPUT CONTROL FOR STRESS PERIOD   52   TIME STEP    6

 SOLVING FOR HEAD 
                                                   Max.-Head-Change                        Max.-Flux-Residual
  Residual-Control   Outer-Iter.   Inner-Iter.     Column Row Layer    Max.-Head-Change    Column Row Layer    Max.-Flux-Residual            L2-New               L2-Old           Solver-Max-Delh
          0                 1          11            81   45     1       0.3301268864E+01      81   46    1       0.9375206307E+05      0.2897697835E+06      0.1964701548E+03      0.3301268864E+01
          0                 2           9            77   45     2       0.8509069056E+00      81   46    1      -0.9392042802E+04      0.2945782707E+05      0.2897697835E+06      0.8509069056E+00
          0                 3           4            77   45     2      -0.7733312299E-01      77   45    2      -0.2032859196E+03      0.2150010537E+03      0.2945782707E+05     -0.7733312299E-01
          0                 4           2            27   79     2       0.4157269631E-03      31   47    2       0.4207140170E+00      0.4442694661E+00      0.2150010537E+03      0.4157269631E-03

    ------------------------------------------------
       NWT REQUIRED            4 OUTER ITERATIONS 
       AND A TOTAL OF         26 INNER ITERATIONS.
    ------------------------------------------------

 NO OUTPUT CONTROL FOR STRESS PERIOD   52   TIME STEP    7

 SOLVING FOR HEAD 
                                                   Max.-Head-Change                        Max.-Flux-Residual
  Residual-Control   Outer-Iter.   Inner-Iter.     Column Row Layer    Max.-Head-Change    Column Row Layer    Max.-Flux-Residual            L2-New               L2-Old           Solver-Max-Delh
          0                 1          11            77   45     2       0.4148857372E+01      81   46    1       0.9083417308E+05      0.2743564563E+06      0.4442694661E+00      0.4148857372E+01
          0                 2           9            91   67     1      -0.6465252720E+00      91   67    1      -0.2819258350E+05      0.3936104588E+05      0.2743564563E+06     -0.6465252720E+00
          0                 3           4            89   67     2       0.3377736598E-01      89   67    2       0.1573389739E+04      0.1573419566E+04      0.3936104588E+05      0.3377736598E-01
          0                 4           3            89   67     2       0.3040206140E-02      89   67    2       0.1416187786E+03      0.1416296133E+03      0.1573419566E+04      0.3040206140E-02

    ------------------------------------------------
       NWT REQUIRED            4 OUTER ITERATIONS 
       AND A TOTAL OF         27 INNER ITERATIONS.
    ------------------------------------------------

 NO OUTPUT CONTROL FOR STRESS PERIOD   52   TIME STEP    8

 SOLVING FOR HEAD 
                                                   Max.-Head-Change                        Max.-Flux-Residual
  Residual-Control   Outer-Iter.   Inner-Iter.     Column Row Layer    Max.-Head-Change    Column Row Layer    Max.-Flux-Residual            L2-New               L2-Old           Solver-Max-Delh
          0                 1          11            81   45     1       0.3053137160E+01      81   46    1       0.8800553619E+05      0.2610153472E+06      0.1416296133E+03      0.3053137160E+01
          0                 2           9            53  107     3       0.1703589064E+01      81   46    1      -0.8815154891E+04      0.2694771784E+05      0.2610153472E+06      0.1703589064E+01
          0                 3           5            53  107     3      -0.1548388594E+00      53  107    3      -0.5774099043E+03      0.7466878411E+03      0.2694771784E+05     -0.1548388594E+00
          0                 4           2            27   79     2       0.4112813776E-03      83   49    2       0.4657832533E-01      0.1234215195E+00      0.7466878411E+03      0.4112813776E-03

    ------------------------------------------------
       NWT REQUIRED            4 OUTER ITERATIONS 
       AND A TOTAL OF         27 INNER ITERATIONS.
    ------------------------------------------------

 NO OUTPUT CONTROL FOR STRESS PERIOD   52   TIME STEP    9

 SOLVING FOR HEAD 
                                                   Max.-Head-Change                        Max.-Flux-Residual
  Residual-Control   Outer-Iter.   Inner-Iter.     Column Row Layer    Max.-Head-Change    Column Row Layer    Max.-Flux-Residual            L2-New               L2-Old           Solver-Max-Delh
          0                 1          11            53  107     3       0.6662568821E+01      81   46    1       0.8525601228E+05      0.2490849178E+06      0.1234215195E+00      0.6662568821E+01
          0                 2           9            53  107     3      -0.8745456518E+00      81   46    1      -0.8539186822E+04      0.2509265319E+05      0.2490849178E+06     -0.8745456518E+00
          0                 3           3            27   79     2       0.1591652011E-02      52  107    3      -0.6988270289E+01      0.9990878640E+01      0.2509265319E+05      0.1591652011E-02

    ------------------------------------------------
       NWT REQUIRED            3 OUTER ITERATIONS 
       AND A TOTAL OF         23 INNER ITERATIONS.
    ------------------------------------------------

 NO OUTPUT CONTROL FOR STRESS PERIOD   52   TIME STEP   10

 SOLVING FOR HEAD 
                                                   Max.-Head-Change                        Max.-Flux-Residual
  Residual-Control   Outer-Iter.   Inner-Iter.     Column Row Layer    Max.-Head-Change    Column Row Layer    Max.-Flux-Residual            L2-New               L2-Old           Solver-Max-Delh
          0                 1          11            81   45     1       0.2825652656E+01      81   46    1       0.8259239491E+05      0.2393431807E+06      0.9990878640E+01      0.2825652656E+01
          0                 2           9            81   45     1      -0.2572303175E+00      81   46    1      -0.8271881583E+04      0.2396729162E+05      0.2393431807E+06     -0.2572303175E+00
          0                 3           3            27   79     2       0.1613086077E-02      92   67    1      -0.3097911358E+01      0.6984120106E+01      0.2396729162E+05      0.1613086077E-02

    ------------------------------------------------
       NWT REQUIRED            3 OUTER ITERATIONS 
       AND A TOTAL OF         23 INNER ITERATIONS.
    ------------------------------------------------

 NO OUTPUT CONTROL FOR STRESS PERIOD   52   TIME STEP   11

 SOLVING FOR HEAD 
                                                   Max.-Head-Change                        Max.-Flux-Residual
  Residual-Control   Outer-Iter.   Inner-Iter.     Column Row Layer    Max.-Head-Change    Column Row Layer    Max.-Flux-Residual            L2-New               L2-Old           Solver-Max-Delh
          0                 1          11            81   45     1       0.2719300340E+01      81   46    1       0.8001402138E+05      0.2300427542E+06      0.6984120106E+01      0.2719300340E+01
          0                 2           9            36   34     2       0.2956271342E+00      81   46    1      -0.8013164633E+04      0.2306262197E+05      0.2300427542E+06      0.2956271342E+00
          0                 3           5            65    7     2      -0.2280146898E+00      65    7    2      -0.6473044978E+04      0.6474414014E+04      0.2306262197E+05     -0.2280146898E+00
          0                 4           2            65    7     2      -0.2056411984E-01      65    7    2      -0.5835363138E+03      0.5835381031E+03      0.6474414014E+04     -0.2056411984E-01
          0                 5           2            65    7     2      -0.1849251720E-02      65    7    2      -0.5246790151E+02      0.5246822375E+02      0.5835381031E+03     -0.1849251720E-02

    ------------------------------------------------
       NWT REQUIRED            5 OUTER ITERATIONS 
       AND A TOTAL OF         29 INNER ITERATIONS.
    ------------------------------------------------

 OUTPUT CONTROL FOR STRESS PERIOD   52   TIME STEP   12
    SAVE BUDGET
 UBDSV1 SAVING "         STORAGE" ON UNIT  39 AT TIME STEP 12, STRESS PERIOD  52
 UBDSV2 SAVING "   CONSTANT HEAD" ON UNIT  39 AT TIME STEP 12, STRESS PERIOD  52
 UBDSV1 SAVING "FLOW RIGHT FACE " ON UNIT  39 AT TIME STEP 12, STRESS PERIOD  52
 UBDSV1 SAVING "FLOW FRONT FACE " ON UNIT  39 AT TIME STEP 12, STRESS PERIOD  52
 UBDSV1 SAVING "FLOW LOWER FACE " ON UNIT  39 AT TIME STEP 12, STRESS PERIOD  52
 UBDSV3 SAVING "              ET" ON UNIT  39 AT TIME STEP 12, STRESS PERIOD  52
 UBDSV3 SAVING "        RECHARGE" ON UNIT  39 AT TIME STEP 12, STRESS PERIOD  52
1
  VOLUMETRIC BUDGET FOR ENTIRE MODEL AT END OF TIME STEP   12, STRESS PERIOD  52
  ------------------------------------------------------------------------------

     CUMULATIVE VOLUMES      L**3       RATES FOR THIS TIME STEP      L**3/T
     ------------------                 ------------------------

           IN:                                      IN:
           ---                                      ---
             STORAGE = 51884507136.0000               STORAGE =     2171441.0000
       CONSTANT HEAD = 18580260864.0000         CONSTANT HEAD =     1508146.3750
               WELLS =   324179520.0000                 WELLS =           0.0000
                  ET =           0.0000                    ET =           0.0000
            RECHARGE =380853518336.0000              RECHARGE =    22934732.0000

            TOTAL IN =451642458112.0000              TOTAL IN =    26614320.0000

          OUT:                                     OUT:
          ----                                     ----
             STORAGE =120394031104.0000               STORAGE =     4599641.5000
       CONSTANT HEAD =126880743424.0000         CONSTANT HEAD =     7517157.0000
               WELLS =   666932416.0000                 WELLS =       52679.0000
                  ET =203701370880.0000                    ET =    14444872.0000
            RECHARGE =           0.0000              RECHARGE =           0.0000

           TOTAL OUT =451643047936.0000             TOTAL OUT =    26614348.0000

            IN - OUT =     -589824.0000              IN - OUT =         -28.0000

 PERCENT DISCREPANCY =          -0.00     PERCENT DISCREPANCY =          -0.00






         TIME SUMMARY AT END OF TIME STEP   12 IN STRESS PERIOD   52
                    SECONDS     MINUTES      HOURS       DAYS        YEARS
                    -----------------------------------------------------------
   TIME STEP LENGTH 2.62800E+06  43800.      730.00      30.417     8.32763E-02
 STRESS PERIOD TIME 3.15360E+07 5.25600E+05  8760.0      365.00     0.99932    
         TOTAL TIME 1.64100E+09 2.73499E+07 4.55832E+05  18993.      52.000    
1
1
                            STRESS PERIOD NO.   53, LENGTH =   366.0000    
                            -----------------------------------------------

                              NUMBER OF TIME STEPS =    12

                               MULTIPLIER FOR DELT =     1.000

                            INITIAL TIME STEP SIZE =   30.50000    

 WELL NO.  LAYER   ROW   COL   STRESS RATE         
 --------------------------------------------------
      1      1     46     59     -0.5531E+05

      1 WELL 

 REUSING SURF FROM LAST STRESS PERIOD

 REUSING EVTR FROM LAST STRESS PERIOD

 REUSING EXDP FROM LAST STRESS PERIOD



                           RECHARGE
 READING ON UNIT   16 WITH FORMAT: (15F5.0)            


     63 TIME-VARIANT SPECIFIED-HEAD CELLS

 SOLVING FOR HEAD 
                                                   Max.-Head-Change                        Max.-Flux-Residual
  Residual-Control   Outer-Iter.   Inner-Iter.     Column Row Layer    Max.-Head-Change    Column Row Layer    Max.-Flux-Residual            L2-New               L2-Old           Solver-Max-Delh
          0                 1          11            53  107     3       0.8632494684E+01      81   50    1      -0.8753924767E+05      0.4866749348E+06      0.5246822375E+02      0.8632494684E+01
          0                 2          10            53  107     3      -0.7939673396E+00      81   50    1       0.8652236535E+04      0.4898855567E+05      0.4866749348E+06     -0.7939673396E+00
          0                 3           6            65    2     2      -0.1208428346E-01      61   99    1       0.1826716030E+03      0.1884767663E+03      0.4898855567E+05     -0.1208428346E-01
          0                 4           3            65    2     2      -0.6862544596E-03      83   50    2      -0.8248633873E+00      0.1594674043E+01      0.1884767663E+03     -0.6862544596E-03

    ------------------------------------------------
       NWT REQUIRED            4 OUTER ITERATIONS 
       AND A TOTAL OF         30 INNER ITERATIONS.
    ------------------------------------------------

 NO OUTPUT CONTROL FOR STRESS PERIOD   53   TIME STEP    1

 SOLVING FOR HEAD 
                                                   Max.-Head-Change                        Max.-Flux-Residual
  Residual-Control   Outer-Iter.   Inner-Iter.     Column Row Layer    Max.-Head-Change    Column Row Layer    Max.-Flux-Residual            L2-New               L2-Old           Solver-Max-Delh
          0                 1          11            53  106     3       0.2795960821E+01      81   50    1      -0.6332073303E+05      0.3482538843E+06      0.1594674043E+01      0.2795960821E+01
          0                 2           9            90   66     2       0.7824013070E+00      90   66    2       0.8668848813E+04      0.3600152257E+05      0.3482538843E+06      0.7824013070E+00
          0                 3           5            90   66     2      -0.7031951303E-01      90   66    2      -0.8630920066E+03      0.8922961775E+03      0.3600152257E+05     -0.7031951303E-01
          0                 4           3            27   79     2       0.4107945720E-03      60   62    3      -0.1020315371E+01      0.1136565333E+01      0.8922961775E+03      0.4107945720E-03

    ------------------------------------------------
       NWT REQUIRED            4 OUTER ITERATIONS 
       AND A TOTAL OF         28 INNER ITERATIONS.
    ------------------------------------------------

 NO OUTPUT CONTROL FOR STRESS PERIOD   53   TIME STEP    2

 SOLVING FOR HEAD 
                                                   Max.-Head-Change                        Max.-Flux-Residual
  Residual-Control   Outer-Iter.   Inner-Iter.     Column Row Layer    Max.-Head-Change    Column Row Layer    Max.-Flux-Residual            L2-New               L2-Old           Solver-Max-Delh
          0                 1          11            53  106     3       0.2487502003E+01      54  106    2       0.5303764208E+05      0.2955226653E+06      0.1136565333E+01      0.2487502003E+01
          0                 2           9            53  106     3      -0.2262769778E+00      54  106    2      -0.5330507103E+04      0.2957485623E+05      0.2955226653E+06     -0.2262769778E+00
          0                 3           5            27   79     2       0.1593358245E-02      57   80    2      -0.6701856676E+01      0.1490738308E+02      0.2957485623E+05      0.1593358245E-02

    ------------------------------------------------
       NWT REQUIRED            3 OUTER ITERATIONS 
       AND A TOTAL OF         25 INNER ITERATIONS.
    ------------------------------------------------

 NO OUTPUT CONTROL FOR STRESS PERIOD   53   TIME STEP    3

 SOLVING FOR HEAD 
                                                   Max.-Head-Change                        Max.-Flux-Residual
  Residual-Control   Outer-Iter.   Inner-Iter.     Column Row Layer    Max.-Head-Change    Column Row Layer    Max.-Flux-Residual            L2-New               L2-Old           Solver-Max-Delh
          0                 1          11            53  106     3       0.2222969070E+01      54  106    2       0.5005616760E+05      0.2652557535E+06      0.1490738308E+02      0.2222969070E+01
          0                 2           9            53  106     3      -0.2044561771E+00      54  106    2      -0.5028760758E+04      0.2656971660E+05      0.2652557535E+06     -0.2044561771E+00
          0                 3           5            27   79     2       0.1614093734E-02      80   50    1      -0.2512818206E+02      0.3649407236E+02      0.2656971660E+05      0.1614093734E-02

    ------------------------------------------------
       NWT REQUIRED            3 OUTER ITERATIONS 
       AND A TOTAL OF         25 INNER ITERATIONS.
    ------------------------------------------------

 NO OUTPUT CONTROL FOR STRESS PERIOD   53   TIME STEP    4

 SOLVING FOR HEAD 
                                                   Max.-Head-Change                        Max.-Flux-Residual
  Residual-Control   Outer-Iter.   Inner-Iter.     Column Row Layer    Max.-Head-Change    Column Row Layer    Max.-Flux-Residual            L2-New               L2-Old           Solver-Max-Delh
          0                 1          11            53  106     3       0.1955098739E+01      54  106    2       0.4715141494E+05      0.2445292439E+06      0.3649407236E+02      0.1955098739E+01
          0                 2           9            53  106     3      -0.1782228568E+00      54  106    2      -0.4735091987E+04      0.2441395353E+05      0.2445292439E+06     -0.1782228568E+00
          0                 3           5            27   79     2       0.1614689323E-02      63   85    1       0.1194294262E+02      0.1436964147E+02      0.2441395353E+05      0.1614689323E-02

    ------------------------------------------------
       NWT REQUIRED            3 OUTER ITERATIONS 
       AND A TOTAL OF         25 INNER ITERATIONS.
    ------------------------------------------------

 NO OUTPUT CONTROL FOR STRESS PERIOD   53   TIME STEP    5

 SOLVING FOR HEAD 
                                                   Max.-Head-Change                        Max.-Flux-Residual
  Residual-Control   Outer-Iter.   Inner-Iter.     Column Row Layer    Max.-Head-Change    Column Row Layer    Max.-Flux-Residual            L2-New               L2-Old           Solver-Max-Delh
          0                 1          11            53  106     3       0.1733078501E+01      88   65    1       0.4505302953E+05      0.2292423754E+06      0.1436964147E+02      0.1733078501E+01
          0                 2           9            53  106     3      -0.1578576759E+00      88   65    1      -0.4518759748E+04      0.2295003606E+05      0.2292423754E+06     -0.1578576759E+00
          0                 3           5            79   49     1       0.2757883275E-02      79   49    1       0.1508065680E+03      0.1510060357E+03      0.2295003606E+05      0.2757883275E-02

    ------------------------------------------------
       NWT REQUIRED            3 OUTER ITERATIONS 
       AND A TOTAL OF         25 INNER ITERATIONS.
    ------------------------------------------------

 NO OUTPUT CONTROL FOR STRESS PERIOD   53   TIME STEP    6

 SOLVING FOR HEAD 
                                                   Max.-Head-Change                        Max.-Flux-Residual
  Residual-Control   Outer-Iter.   Inner-Iter.     Column Row Layer    Max.-Head-Change    Column Row Layer    Max.-Flux-Residual            L2-New               L2-Old           Solver-Max-Delh
          0                 1          11            53  106     3       0.1547169343E+01      88   65    1       0.4319768051E+05      0.2174795857E+06      0.1510060357E+03      0.1547169343E+01
          0                 2           9            53  106     3      -0.1409189869E+00      79   49    1       0.4388604866E+04      0.2214114001E+05      0.2174795857E+06     -0.1409189869E+00
          0                 3           6            12    9     1      -0.4981840480E-02      12    9    1      -0.3963332014E+03      0.4024387943E+03      0.2214114001E+05     -0.4981840480E-02

    ------------------------------------------------
       NWT REQUIRED            3 OUTER ITERATIONS 
       AND A TOTAL OF         26 INNER ITERATIONS.
    ------------------------------------------------

 NO OUTPUT CONTROL FOR STRESS PERIOD   53   TIME STEP    7

 SOLVING FOR HEAD 
                                                   Max.-Head-Change                        Max.-Flux-Residual
  Residual-Control   Outer-Iter.   Inner-Iter.     Column Row Layer    Max.-Head-Change    Column Row Layer    Max.-Flux-Residual            L2-New               L2-Old           Solver-Max-Delh
          0                 1          11            53  106     3       0.1390649838E+01      88   65    1       0.4144590021E+05      0.2079064676E+06      0.4024387943E+03      0.1390649838E+01
          0                 2           9            53  106     3      -0.1266242053E+00      12    9    1      -0.9377626757E+04      0.2283444786E+05      0.2079064676E+06     -0.1266242053E+00
          0                 3           5            27   79     2       0.1614847771E-02      92   67    1      -0.3823405288E+01      0.7682229260E+01      0.2283444786E+05      0.1614847771E-02

    ------------------------------------------------
       NWT REQUIRED            3 OUTER ITERATIONS 
       AND A TOTAL OF         25 INNER ITERATIONS.
    ------------------------------------------------

 NO OUTPUT CONTROL FOR STRESS PERIOD   53   TIME STEP    8

 SOLVING FOR HEAD 
                                                   Max.-Head-Change                        Max.-Flux-Residual
  Residual-Control   Outer-Iter.   Inner-Iter.     Column Row Layer    Max.-Head-Change    Column Row Layer    Max.-Flux-Residual            L2-New               L2-Old           Solver-Max-Delh
          0                 1          11            54  106     2       0.1271486111E+01      88   65    1       0.3979142746E+05      0.1999234120E+06      0.7682229260E+01      0.1271486111E+01
          0                 2           9            55   82     2      -0.9949344929E+00      88   65    1      -0.3988847085E+04      0.2030177721E+05      0.1999234120E+06     -0.9949344929E+00
          0                 3           5            55   82     2       0.8441787454E-01      55   82    2       0.3272897721E+03      0.3309663027E+03      0.2030177721E+05      0.8441787454E-01
          0                 4           2            55   82     2       0.5139430490E-03      55   82    2       0.1948332690E+01      0.1955467879E+01      0.3309663027E+03      0.5139430490E-03

    ------------------------------------------------
       NWT REQUIRED            4 OUTER ITERATIONS 
       AND A TOTAL OF         27 INNER ITERATIONS.
    ------------------------------------------------

 NO OUTPUT CONTROL FOR STRESS PERIOD   53   TIME STEP    9

 SOLVING FOR HEAD 
                                                   Max.-Head-Change                        Max.-Flux-Residual
  Residual-Control   Outer-Iter.   Inner-Iter.     Column Row Layer    Max.-Head-Change    Column Row Layer    Max.-Flux-Residual            L2-New               L2-Old           Solver-Max-Delh
          0                 1          11            81   45     1       0.1203785216E+01      88   65    1       0.3822875464E+05      0.1933253764E+06      0.1955467879E+01      0.1203785216E+01
          0                 2           9            81   45     1      -0.1094852961E+00      88   65    1      -0.3831580381E+04      0.1935847656E+05      0.1933253764E+06     -0.1094852961E+00
          0                 3           5            27   79     2       0.1593954983E-02      92   67    1      -0.3659083441E+01      0.7213699449E+01      0.1935847656E+05      0.1593954983E-02

    ------------------------------------------------
       NWT REQUIRED            3 OUTER ITERATIONS 
       AND A TOTAL OF         25 INNER ITERATIONS.
    ------------------------------------------------

 NO OUTPUT CONTROL FOR STRESS PERIOD   53   TIME STEP   10

 SOLVING FOR HEAD 
                                                   Max.-Head-Change                        Max.-Flux-Residual
  Residual-Control   Outer-Iter.   Inner-Iter.     Column Row Layer    Max.-Head-Change    Column Row Layer    Max.-Flux-Residual            L2-New               L2-Old           Solver-Max-Delh
          0                 1          11            81   45     1       0.1164921226E+01      81   46    1       0.3709549254E+05      0.1875847951E+06      0.7213699449E+01      0.1164921226E+01
          0                 2           9            81   45     1      -0.1059481281E+00      81   46    1      -0.3711811382E+04      0.1876468170E+05      0.1875847951E+06     -0.1059481281E+00
          0                 3           5            27   79     2       0.1613796507E-02      92   67    1      -0.3581956662E+01      0.7049997460E+01      0.1876468170E+05      0.1613796507E-02

    ------------------------------------------------
       NWT REQUIRED            3 OUTER ITERATIONS 
       AND A TOTAL OF         25 INNER ITERATIONS.
    ------------------------------------------------

 NO OUTPUT CONTROL FOR STRESS PERIOD   53   TIME STEP   11

 SOLVING FOR HEAD 
                                                   Max.-Head-Change                        Max.-Flux-Residual
  Residual-Control   Outer-Iter.   Inner-Iter.     Column Row Layer    Max.-Head-Change    Column Row Layer    Max.-Flux-Residual            L2-New               L2-Old           Solver-Max-Delh
          0                 1          11            81   45     1       0.1127797795E+01      81   46    1       0.3600560028E+05      0.1824749941E+06      0.7049997460E+01      0.1127797795E+01
          0                 2           9            53  106     3       0.1625589807E+01      91   67    2       0.1211235103E+05      0.2331101982E+05      0.1824749941E+06      0.1625589807E+01
          0                 3           6            53  106     3      -0.1477816106E+00      91   67    2      -0.1207463090E+04      0.1534703640E+04      0.2331101982E+05     -0.1477816106E+00
          0                 4           1            27   79     2       0.4161452698E-03      27   79    2       0.3184587904E-01      0.1020196714E+00      0.1534703640E+04      0.4161452698E-03

    ------------------------------------------------
       NWT REQUIRED            4 OUTER ITERATIONS 
       AND A TOTAL OF         27 INNER ITERATIONS.
    ------------------------------------------------

 OUTPUT CONTROL FOR STRESS PERIOD   53   TIME STEP   12
    SAVE BUDGET
 UBDSV1 SAVING "         STORAGE" ON UNIT  39 AT TIME STEP 12, STRESS PERIOD  53
 UBDSV2 SAVING "   CONSTANT HEAD" ON UNIT  39 AT TIME STEP 12, STRESS PERIOD  53
 UBDSV1 SAVING "FLOW RIGHT FACE " ON UNIT  39 AT TIME STEP 12, STRESS PERIOD  53
 UBDSV1 SAVING "FLOW FRONT FACE " ON UNIT  39 AT TIME STEP 12, STRESS PERIOD  53
 UBDSV1 SAVING "FLOW LOWER FACE " ON UNIT  39 AT TIME STEP 12, STRESS PERIOD  53
 UBDSV3 SAVING "              ET" ON UNIT  39 AT TIME STEP 12, STRESS PERIOD  53
 UBDSV3 SAVING "        RECHARGE" ON UNIT  39 AT TIME STEP 12, STRESS PERIOD  53
1
  VOLUMETRIC BUDGET FOR ENTIRE MODEL AT END OF TIME STEP   12, STRESS PERIOD  53
  ------------------------------------------------------------------------------

     CUMULATIVE VOLUMES      L**3       RATES FOR THIS TIME STEP      L**3/T
     ------------------                 ------------------------

           IN:                                      IN:
           ---                                      ---
             STORAGE = 52898406400.0000               STORAGE =     2178194.7500
       CONSTANT HEAD = 19133239296.0000         CONSTANT HEAD =     1524541.0000
               WELLS =   324179520.0000                 WELLS =           0.0000
                  ET =           0.0000                    ET =           0.0000
            RECHARGE =389053644800.0000              RECHARGE =    22405218.0000

            TOTAL IN =461409484800.0000              TOTAL IN =    26107954.0000

          OUT:                                     OUT:
          ----                                     ----
             STORAGE =122222927872.0000               STORAGE =     4580314.5000
       CONSTANT HEAD =129648558080.0000         CONSTANT HEAD =     7565517.5000
               WELLS =   687176896.0000                 WELLS =       55313.0000
                  ET =208851615744.0000                    ET =    13906835.0000
            RECHARGE =           0.0000              RECHARGE =           0.0000

           TOTAL OUT =461410271232.0000             TOTAL OUT =    26107980.0000

            IN - OUT =     -786432.0000              IN - OUT =         -26.0000

 PERCENT DISCREPANCY =          -0.00     PERCENT DISCREPANCY =          -0.00






         TIME SUMMARY AT END OF TIME STEP   12 IN STRESS PERIOD   53
                    SECONDS     MINUTES      HOURS       DAYS        YEARS
                    -----------------------------------------------------------
   TIME STEP LENGTH 2.63520E+06  43920.      732.00      30.500     8.35044E-02
 STRESS PERIOD TIME 3.16224E+07 5.27040E+05  8784.0      366.00      1.0021    
         TOTAL TIME 1.67262E+09 2.78770E+07 4.64616E+05  19359.      53.002    
1
1
                            STRESS PERIOD NO.   54, LENGTH =   365.0000    
                            -----------------------------------------------

                              NUMBER OF TIME STEPS =    12

                               MULTIPLIER FOR DELT =     1.000

                            INITIAL TIME STEP SIZE =   30.41667    

 WELL NO.  LAYER   ROW   COL   STRESS RATE         
 --------------------------------------------------
      1      1     46     59     -0.5531E+05

      1 WELL 

 REUSING SURF FROM LAST STRESS PERIOD

 REUSING EVTR FROM LAST STRESS PERIOD

 REUSING EXDP FROM LAST STRESS PERIOD



                           RECHARGE
 READING ON UNIT   16 WITH FORMAT: (15F5.0)            


     63 TIME-VARIANT SPECIFIED-HEAD CELLS

 SOLVING FOR HEAD 
                                                   Max.-Head-Change                        Max.-Flux-Residual
  Residual-Control   Outer-Iter.   Inner-Iter.     Column Row Layer    Max.-Head-Change    Column Row Layer    Max.-Flux-Residual            L2-New               L2-Old           Solver-Max-Delh
          0                 1          12            92   77     2       0.9425598513E+02      83   51    1       0.2792218519E+06      0.1924165063E+07      0.1020196714E+00      0.9425598513E+02
          0                 2          11            65    5     2      -0.2419386625E+02      92   67    1      -0.9944617605E+06      0.1627548995E+07      0.1924165063E+07     -0.2419386625E+02
          0                 3           6            66    5     2       0.3223212926E+01      65    5    2      -0.6873066246E+04      0.1132019252E+05      0.1627548995E+07      0.3223212926E+01
          0                 4           5            66    5     2       0.4901044812E+00      65    4    2       0.3600541205E+03      0.6403784169E+03      0.1132019252E+05      0.4901044812E+00
          0                 5           4            66    5     2       0.7340734738E-01      65    4    2       0.3236539992E+02      0.6947832982E+02      0.6403784169E+03      0.7340734738E-01
          0                 6           3            66    5     2       0.1098786891E-01      66    5    2       0.4624891824E+01      0.8270531605E+01      0.6947832982E+02      0.1098786891E-01
          0                 7           2            66    5     2       0.1643662591E-02      66    5    2       0.6917790361E+00      0.1070640373E+01      0.8270531605E+01      0.1643662591E-02

    ------------------------------------------------
       NWT REQUIRED            7 OUTER ITERATIONS 
       AND A TOTAL OF         43 INNER ITERATIONS.
    ------------------------------------------------

 NO OUTPUT CONTROL FOR STRESS PERIOD   54   TIME STEP    1

 SOLVING FOR HEAD 
                                                   Max.-Head-Change                        Max.-Flux-Residual
  Residual-Control   Outer-Iter.   Inner-Iter.     Column Row Layer    Max.-Head-Change    Column Row Layer    Max.-Flux-Residual            L2-New               L2-Old           Solver-Max-Delh
          0                 1          12            92   52     1       0.6263174877E+01      87   51    1       0.2296165417E+06      0.1405697144E+07      0.1070640373E+01      0.6263174877E+01
          0                 2          10            55   83     2      -0.9427855588E+00      87   51    1      -0.2470487714E+05      0.1393117082E+06      0.1405697144E+07     -0.9427855588E+00
          0                 3           5            55   83     2       0.8086106555E-01      83   51    1       0.1556378405E+04      0.1754841753E+04      0.1393117082E+06      0.8086106555E-01
          0                 4           4            83   51     1       0.2169816159E-02      83   51    1       0.1400574120E+03      0.1407142799E+03      0.1754841753E+04      0.2169816159E-02

    ------------------------------------------------
       NWT REQUIRED            4 OUTER ITERATIONS 
       AND A TOTAL OF         31 INNER ITERATIONS.
    ------------------------------------------------

 NO OUTPUT CONTROL FOR STRESS PERIOD   54   TIME STEP    2

 SOLVING FOR HEAD 
                                                   Max.-Head-Change                        Max.-Flux-Residual
  Residual-Control   Outer-Iter.   Inner-Iter.     Column Row Layer    Max.-Head-Change    Column Row Layer    Max.-Flux-Residual            L2-New               L2-Old           Solver-Max-Delh
          0                 1          12            88   64     1       0.5801053365E+01      92   52    1       0.2083608532E+06      0.1216991328E+07      0.1407142799E+03      0.5801053365E+01
          0                 2          10            92   52     1      -0.5378012112E+00      92   52    1      -0.2138600726E+05      0.1213281478E+06      0.1216991328E+07     -0.5378012112E+00
          0                 3           5            83   51     1      -0.1799939223E-01      83   51    1      -0.9305555891E+03      0.9352950659E+03      0.1213281478E+06     -0.1799939223E-01
          0                 4           3            27   79     2       0.4120019300E-03      59   64    3       0.9516498670E+00      0.1640155711E+01      0.9352950659E+03      0.4120019300E-03

    ------------------------------------------------
       NWT REQUIRED            4 OUTER ITERATIONS 
       AND A TOTAL OF         30 INNER ITERATIONS.
    ------------------------------------------------

 NO OUTPUT CONTROL FOR STRESS PERIOD   54   TIME STEP    3

 SOLVING FOR HEAD 
                                                   Max.-Head-Change                        Max.-Flux-Residual
  Residual-Control   Outer-Iter.   Inner-Iter.     Column Row Layer    Max.-Head-Change    Column Row Layer    Max.-Flux-Residual            L2-New               L2-Old           Solver-Max-Delh
          0                 1          12            88   64     1       0.5531969882E+01      91   67    1       0.1955724157E+06      0.1109792659E+07      0.1640155711E+01      0.5531969882E+01
          0                 2          10            70   19     2       0.2175862355E+01      70   19    2       0.2570708213E+05      0.1142710108E+06      0.1109792659E+07      0.2175862355E+01
          0                 3           6            70   19     2      -0.1978075621E+00      70   19    2      -0.2556618324E+04      0.2783060103E+04      0.1142710108E+06     -0.1978075621E+00
          0                 4           2            27   79     2       0.4117988308E-03      91   51    1       0.3462364078E+00      0.8352290248E+00      0.2783060103E+04      0.4117988308E-03

    ------------------------------------------------
       NWT REQUIRED            4 OUTER ITERATIONS 
       AND A TOTAL OF         30 INNER ITERATIONS.
    ------------------------------------------------

 NO OUTPUT CONTROL FOR STRESS PERIOD   54   TIME STEP    4

 SOLVING FOR HEAD 
                                                   Max.-Head-Change                        Max.-Flux-Residual
  Residual-Control   Outer-Iter.   Inner-Iter.     Column Row Layer    Max.-Head-Change    Column Row Layer    Max.-Flux-Residual            L2-New               L2-Old           Solver-Max-Delh
          0                 1          12            70   19     2       0.5400310225E+01      91   67    1       0.1872859886E+06      0.1036046719E+07      0.8352290248E+00      0.5400310225E+01
          0                 2          10            72   15     2       0.4844094033E+01      72   15    2       0.4143090390E+05      0.1176896187E+06      0.1036046719E+07      0.4844094033E+01
          0                 3           6            72   15     2      -0.4587169951E+00      72   15    2      -0.4330818091E+04      0.4409745866E+04      0.1176896187E+06     -0.4587169951E+00
          0                 4           2            27   79     2       0.4115466734E-03      72   13    2       0.5406083642E+00      0.8281899488E+00      0.4409745866E+04      0.4115466734E-03

    ------------------------------------------------
       NWT REQUIRED            4 OUTER ITERATIONS 
       AND A TOTAL OF         30 INNER ITERATIONS.
    ------------------------------------------------

 NO OUTPUT CONTROL FOR STRESS PERIOD   54   TIME STEP    5

 SOLVING FOR HEAD 
                                                   Max.-Head-Change                        Max.-Flux-Residual
  Residual-Control   Outer-Iter.   Inner-Iter.     Column Row Layer    Max.-Head-Change    Column Row Layer    Max.-Flux-Residual            L2-New               L2-Old           Solver-Max-Delh
          0                 1          12            88   64     1       0.5025628594E+01      91   67    1       0.1793367243E+06      0.9821797999E+06      0.8281899488E+00      0.5025628594E+01
          0                 2          10            88   64     1      -0.4595731538E+00      91   67    1      -0.1807774285E+05      0.9859727817E+05      0.9821797999E+06     -0.4595731538E+00
          0                 3           5            87   50     3      -0.4420957874E-02      87   49    3       0.9287360015E+01      0.2402240436E+02      0.9859727817E+05     -0.4420957874E-02

    ------------------------------------------------
       NWT REQUIRED            3 OUTER ITERATIONS 
       AND A TOTAL OF         27 INNER ITERATIONS.
    ------------------------------------------------

 NO OUTPUT CONTROL FOR STRESS PERIOD   54   TIME STEP    6

 SOLVING FOR HEAD 
                                                   Max.-Head-Change                        Max.-Flux-Residual
  Residual-Control   Outer-Iter.   Inner-Iter.     Column Row Layer    Max.-Head-Change    Column Row Layer    Max.-Flux-Residual            L2-New               L2-Old           Solver-Max-Delh
          0                 1          12            88   64     1       0.4789391668E+01      91   67    1       0.1717333229E+06      0.9363589136E+06      0.2402240436E+02      0.4789391668E+01
          0                 2          10            92   67     2       0.8207154315E+01      92   67    2       0.5588864024E+05      0.1091504569E+06      0.9363589136E+06      0.8207154315E+01
          0                 3           5            92   67     2      -0.7461053175E+00      92   67    2      -0.5588864120E+04      0.5709285450E+04      0.1091504569E+06     -0.7461053175E+00
          0                 4           2            27   79     2       0.4162555653E-03      81   48    1       0.1186946021E+01      0.1243530482E+01      0.5709285450E+04      0.4162555653E-03

    ------------------------------------------------
       NWT REQUIRED            4 OUTER ITERATIONS 
       AND A TOTAL OF         29 INNER ITERATIONS.
    ------------------------------------------------

 NO OUTPUT CONTROL FOR STRESS PERIOD   54   TIME STEP    7

 SOLVING FOR HEAD 
                                                   Max.-Head-Change                        Max.-Flux-Residual
  Residual-Control   Outer-Iter.   Inner-Iter.     Column Row Layer    Max.-Head-Change    Column Row Layer    Max.-Flux-Residual            L2-New               L2-Old           Solver-Max-Delh
          0                 1          12            92   67     2       0.5593132553E+01      91   67    1       0.1687990400E+06      0.9023342660E+06      0.1243530482E+01      0.5593132553E+01
          0                 2          10            69   21     2       0.1649468941E+01      92   68    1      -0.2939010328E+05      0.9654329269E+05      0.9023342660E+06      0.1649468941E+01
          0                 3           6            69   21     2      -0.1499293454E+00      69   21    2      -0.1610079124E+04      0.1705001420E+04      0.9654329269E+05     -0.1499293454E+00
          0                 4           2            27   79     2       0.4107432064E-03      86   50    2       0.6206174083E+00      0.9263711066E+00      0.1705001420E+04      0.4107432064E-03

    ------------------------------------------------
       NWT REQUIRED            4 OUTER ITERATIONS 
       AND A TOTAL OF         30 INNER ITERATIONS.
    ------------------------------------------------

 NO OUTPUT CONTROL FOR STRESS PERIOD   54   TIME STEP    8

 SOLVING FOR HEAD 
                                                   Max.-Head-Change                        Max.-Flux-Residual
  Residual-Control   Outer-Iter.   Inner-Iter.     Column Row Layer    Max.-Head-Change    Column Row Layer    Max.-Flux-Residual            L2-New               L2-Old           Solver-Max-Delh
          0                 1          12            91   67     1       0.4450024516E+01      91   67    1       0.1635997393E+06      0.8724120604E+06      0.9263711066E+00      0.4450024516E+01
          0                 2          10            91   67     1      -0.4060994347E+00      91   67    1      -0.1644555619E+05      0.8893690813E+05      0.8724120604E+06     -0.4060994347E+00
          0                 3           6            39   22     2      -0.1959218671E-01      39   22    2      -0.3299789807E+03      0.3901583088E+03      0.8893690813E+05     -0.1959218671E-01
          0                 4           2            27   79     2       0.4103762507E-03      67   48    1       0.1022291318E+01      0.1187071028E+01      0.3901583088E+03      0.4103762507E-03

    ------------------------------------------------
       NWT REQUIRED            4 OUTER ITERATIONS 
       AND A TOTAL OF         30 INNER ITERATIONS.
    ------------------------------------------------

 NO OUTPUT CONTROL FOR STRESS PERIOD   54   TIME STEP    9

 SOLVING FOR HEAD 
                                                   Max.-Head-Change                        Max.-Flux-Residual
  Residual-Control   Outer-Iter.   Inner-Iter.     Column Row Layer    Max.-Head-Change    Column Row Layer    Max.-Flux-Residual            L2-New               L2-Old           Solver-Max-Delh
          0                 1          12            91   67     1       0.4286578588E+01      91   67    1       0.1575731728E+06      0.8456521508E+06      0.1187071028E+01      0.4286578588E+01
          0                 2          10            91   67     1      -0.3910276543E+00      91   67    1      -0.1583218175E+05      0.8467593284E+05      0.8456521508E+06     -0.3910276543E+00
          0                 3           5            50  119     2      -0.4163653431E-02      50  119    2      -0.1428273028E+03      0.1522902448E+03      0.8467593284E+05     -0.4163653431E-02

    ------------------------------------------------
       NWT REQUIRED            3 OUTER ITERATIONS 
       AND A TOTAL OF         27 INNER ITERATIONS.
    ------------------------------------------------

 NO OUTPUT CONTROL FOR STRESS PERIOD   54   TIME STEP   10

 SOLVING FOR HEAD 
                                                   Max.-Head-Change                        Max.-Flux-Residual
  Residual-Control   Outer-Iter.   Inner-Iter.     Column Row Layer    Max.-Head-Change    Column Row Layer    Max.-Flux-Residual            L2-New               L2-Old           Solver-Max-Delh
          0                 1          12            91   67     1       0.4131121904E+01      91   67    1       0.1517952181E+06      0.8220950270E+06      0.1522902448E+03      0.4131121904E+01
          0                 2          10            91   68     1      -0.1127910812E+01      91   68    1      -0.4693101299E+05      0.9491627207E+05      0.8220950270E+06     -0.1127910812E+01
          0                 3           6            17   31     2      -0.3284057223E-02      17   31    2      -0.1141766206E+03      0.1227965187E+03      0.9491627207E+05     -0.3284057223E-02

    ------------------------------------------------
       NWT REQUIRED            3 OUTER ITERATIONS 
       AND A TOTAL OF         28 INNER ITERATIONS.
    ------------------------------------------------

 NO OUTPUT CONTROL FOR STRESS PERIOD   54   TIME STEP   11

 SOLVING FOR HEAD 
                                                   Max.-Head-Change                        Max.-Flux-Residual
  Residual-Control   Outer-Iter.   Inner-Iter.     Column Row Layer    Max.-Head-Change    Column Row Layer    Max.-Flux-Residual            L2-New               L2-Old           Solver-Max-Delh
          0                 1          12            91   67     1       0.3960887298E+01      91   67    1       0.1459999042E+06      0.8013061053E+06      0.1227965187E+03      0.3960887298E+01
          0                 2          10            73   14     2       0.1642075689E+01      73   14    2       0.1717166745E+05      0.8199022029E+05      0.8013061053E+06      0.1642075689E+01
          0                 3           6            73   14     2      -0.1491444652E+00      73   14    2      -0.1700839438E+04      0.1750088121E+04      0.8199022029E+05     -0.1491444652E+00
          0                 4           3            27   79     2       0.4145591293E-03      58   65    1       0.5002180457E+01      0.5012789623E+01      0.1750088121E+04      0.4145591293E-03

    ------------------------------------------------
       NWT REQUIRED            4 OUTER ITERATIONS 
       AND A TOTAL OF         31 INNER ITERATIONS.
    ------------------------------------------------

 OUTPUT CONTROL FOR STRESS PERIOD   54   TIME STEP   12
    SAVE BUDGET
 UBDSV1 SAVING "         STORAGE" ON UNIT  39 AT TIME STEP 12, STRESS PERIOD  54
 UBDSV2 SAVING "   CONSTANT HEAD" ON UNIT  39 AT TIME STEP 12, STRESS PERIOD  54
 UBDSV1 SAVING "FLOW RIGHT FACE " ON UNIT  39 AT TIME STEP 12, STRESS PERIOD  54
 UBDSV1 SAVING "FLOW FRONT FACE " ON UNIT  39 AT TIME STEP 12, STRESS PERIOD  54
 UBDSV1 SAVING "FLOW LOWER FACE " ON UNIT  39 AT TIME STEP 12, STRESS PERIOD  54
 UBDSV3 SAVING "              ET" ON UNIT  39 AT TIME STEP 12, STRESS PERIOD  54
 UBDSV3 SAVING "        RECHARGE" ON UNIT  39 AT TIME STEP 12, STRESS PERIOD  54
1
  VOLUMETRIC BUDGET FOR ENTIRE MODEL AT END OF TIME STEP   12, STRESS PERIOD  54
  ------------------------------------------------------------------------------

     CUMULATIVE VOLUMES      L**3       RATES FOR THIS TIME STEP      L**3/T
     ------------------                 ------------------------

           IN:                                      IN:
           ---                                      ---
             STORAGE = 53065244672.0000               STORAGE =      261175.5938
       CONSTANT HEAD = 19645751296.0000         CONSTANT HEAD =     1366527.6250
               WELLS =   324179520.0000                 WELLS =           0.0000
                  ET =           0.0000                    ET =           0.0000
            RECHARGE =407861952512.0000              RECHARGE =    51529660.0000

            TOTAL IN =480897138688.0000              TOTAL IN =    53157364.0000

          OUT:                                     OUT:
          ----                                     ----
             STORAGE =132610121728.0000               STORAGE =    26735124.0000
       CONSTANT HEAD =132527751168.0000         CONSTANT HEAD =     8056344.5000
               WELLS =   707366080.0000                 WELLS =       55313.0000
                  ET =215052713984.0000                    ET =    18310604.0000
            RECHARGE =           0.0000              RECHARGE =           0.0000

           TOTAL OUT =480897957888.0000             TOTAL OUT =    53157384.0000

            IN - OUT =     -819200.0000              IN - OUT =         -20.0000

 PERCENT DISCREPANCY =          -0.00     PERCENT DISCREPANCY =          -0.00






         TIME SUMMARY AT END OF TIME STEP   12 IN STRESS PERIOD   54
                    SECONDS     MINUTES      HOURS       DAYS        YEARS
                    -----------------------------------------------------------
   TIME STEP LENGTH 2.62800E+06  43800.      730.00      30.417     8.32763E-02
 STRESS PERIOD TIME 3.15360E+07 5.25600E+05  8760.0      365.00     0.99932    
         TOTAL TIME 1.70415E+09 2.84026E+07 4.73376E+05  19724.      54.001    
1
1
                            STRESS PERIOD NO.   55, LENGTH =   365.0000    
                            -----------------------------------------------

                              NUMBER OF TIME STEPS =    12

                               MULTIPLIER FOR DELT =     1.000

                            INITIAL TIME STEP SIZE =   30.41667    

 WELL NO.  LAYER   ROW   COL   STRESS RATE         
 --------------------------------------------------
      1      1     49     59     -0.5421E+05

      1 WELL 

 REUSING SURF FROM LAST STRESS PERIOD

 REUSING EVTR FROM LAST STRESS PERIOD

 REUSING EXDP FROM LAST STRESS PERIOD



                           RECHARGE
 READING ON UNIT   16 WITH FORMAT: (15F5.0)            


     63 TIME-VARIANT SPECIFIED-HEAD CELLS

 SOLVING FOR HEAD 
                                                   Max.-Head-Change                        Max.-Flux-Residual
  Residual-Control   Outer-Iter.   Inner-Iter.     Column Row Layer    Max.-Head-Change    Column Row Layer    Max.-Flux-Residual            L2-New               L2-Old           Solver-Max-Delh
          0                 1          11            65    2     2      -0.9113196865E+02      79   49    1      -0.3312015590E+06      0.1872074402E+07      0.5012789623E+01     -0.9113196865E+02
          0                 2          10            66    1     2      -0.6254435689E+02      84   52    1       0.4056294805E+05      0.1888999461E+06      0.1872074402E+07     -0.6254435689E+02
          0                 3           6            66    1     2       0.1699098574E+01      66    1    3      -0.2266448595E+04      0.2587588723E+04      0.1888999461E+06      0.1699098574E+01
          0                 4           4            66    1     2       0.1068143489E+00      66    1    2       0.4280565101E+02      0.5611824805E+02      0.2587588723E+04      0.1068143489E+00
          0                 5           3            66    1     2       0.6706669832E-02      66    1    3       0.3798737474E+01      0.5687509965E+01      0.5611824805E+02      0.6706669832E-02

    ------------------------------------------------
       NWT REQUIRED            5 OUTER ITERATIONS 
       AND A TOTAL OF         34 INNER ITERATIONS.
    ------------------------------------------------

 NO OUTPUT CONTROL FOR STRESS PERIOD   55   TIME STEP    1

 SOLVING FOR HEAD 
                                                   Max.-Head-Change                        Max.-Flux-Residual
  Residual-Control   Outer-Iter.   Inner-Iter.     Column Row Layer    Max.-Head-Change    Column Row Layer    Max.-Flux-Residual            L2-New               L2-Old           Solver-Max-Delh
          0                 1          11            83   51     1      -0.5659024929E+01      83   51    1      -0.2532935405E+06      0.1252527124E+07      0.5687509965E+01     -0.5659024929E+01
          0                 2          10            92   68     1      -0.5947858194E+01      80   50    1       0.3661729589E+05      0.1316377300E+06      0.1252527124E+07     -0.5947858194E+01
          0                 3           5            92   68     1       0.4747968615E+00      91   68    2      -0.2082326714E+04      0.3394263585E+04      0.1316377300E+06      0.4747968615E+00
          0                 4           4            92   68     1       0.5260934242E-02      92   68    1       0.1853430714E+02      0.2199897483E+02      0.3394263585E+04      0.5260934242E-02

    ------------------------------------------------
       NWT REQUIRED            4 OUTER ITERATIONS 
       AND A TOTAL OF         30 INNER ITERATIONS.
    ------------------------------------------------

 NO OUTPUT CONTROL FOR STRESS PERIOD   55   TIME STEP    2

 SOLVING FOR HEAD 
                                                   Max.-Head-Change                        Max.-Flux-Residual
  Residual-Control   Outer-Iter.   Inner-Iter.     Column Row Layer    Max.-Head-Change    Column Row Layer    Max.-Flux-Residual            L2-New               L2-Old           Solver-Max-Delh
          0                 1          11            92   68     1      -0.5021160565E+01      83   51    1      -0.2131428471E+06      0.1005738127E+07      0.2199897483E+02     -0.5021160565E+01
          0                 2          10            81   50     1       0.5788573584E+00      81   50    1       0.3283899203E+05      0.1038526642E+06      0.1005738127E+07      0.5788573584E+00
          0                 3           5            92   68     1       0.4418271998E-02      80   51    1       0.2261365432E+03      0.3559336477E+03      0.1038526642E+06      0.4418271998E-02

    ------------------------------------------------
       NWT REQUIRED            3 OUTER ITERATIONS 
       AND A TOTAL OF         26 INNER ITERATIONS.
    ------------------------------------------------

 NO OUTPUT CONTROL FOR STRESS PERIOD   55   TIME STEP    3

 SOLVING FOR HEAD 
                                                   Max.-Head-Change                        Max.-Flux-Residual
  Residual-Control   Outer-Iter.   Inner-Iter.     Column Row Layer    Max.-Head-Change    Column Row Layer    Max.-Flux-Residual            L2-New               L2-Old           Solver-Max-Delh
          0                 1          11            85   52     1      -0.4389521778E+01      85   52    1      -0.1840541650E+06      0.8529945999E+06      0.3559336477E+03     -0.4389521778E+01
          0                 2          10            73   14     2       0.6013432359E+00      83   51    1       0.2950517499E+05      0.9001154540E+05      0.8529945999E+06      0.6013432359E+00
          0                 3           5            80   53     2      -0.6236312727E-02      80   53    2      -0.9975365253E+02      0.1263726520E+03      0.9001154540E+05     -0.6236312727E-02

    ------------------------------------------------
       NWT REQUIRED            3 OUTER ITERATIONS 
       AND A TOTAL OF         26 INNER ITERATIONS.
    ------------------------------------------------

 NO OUTPUT CONTROL FOR STRESS PERIOD   55   TIME STEP    4

 SOLVING FOR HEAD 
                                                   Max.-Head-Change                        Max.-Flux-Residual
  Residual-Control   Outer-Iter.   Inner-Iter.     Column Row Layer    Max.-Head-Change    Column Row Layer    Max.-Flux-Residual            L2-New               L2-Old           Solver-Max-Delh
          0                 1          11            76   48     1      -0.3990176266E+01      85   52    1      -0.1650993906E+06      0.7437208561E+06      0.1263726520E+03     -0.3990176266E+01
          0                 2          10            85   52     1       0.7582443154E+00      85   52    1       0.4098022718E+05      0.8278121086E+05      0.7437208561E+06      0.7582443154E+00
          0                 3           5            85   53     1       0.6596389829E-02      71   10    3       0.3788925696E+02      0.4917942899E+02      0.8278121086E+05      0.6596389829E-02

    ------------------------------------------------
       NWT REQUIRED            3 OUTER ITERATIONS 
       AND A TOTAL OF         26 INNER ITERATIONS.
    ------------------------------------------------

 NO OUTPUT CONTROL FOR STRESS PERIOD   55   TIME STEP    5

 SOLVING FOR HEAD 
                                                   Max.-Head-Change                        Max.-Flux-Residual
  Residual-Control   Outer-Iter.   Inner-Iter.     Column Row Layer    Max.-Head-Change    Column Row Layer    Max.-Flux-Residual            L2-New               L2-Old           Solver-Max-Delh
          0                 1          11            76   48     1      -0.3745290162E+01      76   48    1      -0.1499125102E+06      0.6541987123E+06      0.4917942899E+02     -0.3745290162E+01
          0                 2           9            65    6     2      -0.1107745891E+02      76   48    1       0.1489899048E+05      0.6538994788E+05      0.6541987123E+06     -0.1107745891E+02
          0                 3           5            65    6     2       0.5561865065E+00      65    6    3      -0.6076657043E+03      0.7132943934E+03      0.6538994788E+05      0.5561865065E+00
          0                 4           2            65    6     2       0.2269144081E-01      65    6    2       0.1409179980E+02      0.1412140784E+02      0.7132943934E+03      0.2269144081E-01
          0                 5           2            65    6     2       0.9238123886E-03      65    6    3       0.1234426137E+01      0.1354079381E+01      0.1412140784E+02      0.9238123886E-03

    ------------------------------------------------
       NWT REQUIRED            5 OUTER ITERATIONS 
       AND A TOTAL OF         29 INNER ITERATIONS.
    ------------------------------------------------

 NO OUTPUT CONTROL FOR STRESS PERIOD   55   TIME STEP    6

 SOLVING FOR HEAD 
                                                   Max.-Head-Change                        Max.-Flux-Residual
  Residual-Control   Outer-Iter.   Inner-Iter.     Column Row Layer    Max.-Head-Change    Column Row Layer    Max.-Flux-Residual            L2-New               L2-Old           Solver-Max-Delh
          0                 1          11            65    6     2      -0.1616288583E+02      76   48    1      -0.1407138939E+06      0.5856130054E+06      0.1354079381E+01     -0.1616288583E+02
          0                 2           9            65    3     2      -0.1822495891E+02      76   48    1       0.1399116908E+05      0.5867593893E+05      0.5856130054E+06     -0.1822495891E+02
          0                 3           5            65    3     2       0.6013324798E+00      65    3    2       0.2666878776E+03      0.2980741329E+03      0.5867593893E+05      0.6013324798E+00
          0                 4           2            65    3     2       0.3443656749E-01      65    3    2       0.1519537524E+02      0.1545897329E+02      0.2980741329E+03      0.3443656749E-01
          0                 5           2            65    3     2       0.1969542322E-02      65    3    2       0.8689833118E+00      0.9269381572E+00      0.1545897329E+02      0.1969542322E-02

    ------------------------------------------------
       NWT REQUIRED            5 OUTER ITERATIONS 
       AND A TOTAL OF         29 INNER ITERATIONS.
    ------------------------------------------------

 NO OUTPUT CONTROL FOR STRESS PERIOD   55   TIME STEP    7

 SOLVING FOR HEAD 
                                                   Max.-Head-Change                        Max.-Flux-Residual
  Residual-Control   Outer-Iter.   Inner-Iter.     Column Row Layer    Max.-Head-Change    Column Row Layer    Max.-Flux-Residual            L2-New               L2-Old           Solver-Max-Delh
          0                 1          11            65    3     2      -0.7589159407E+01      76   48    1      -0.1323426291E+06      0.5319375419E+06      0.9269381572E+00     -0.7589159407E+01
          0                 2           9            92   77     2      -0.6716293119E+02      92   77    2      -0.2136339002E+05      0.6101524120E+05      0.5319375419E+06     -0.6716293119E+02
          0                 3           5            92   77     2       0.4794068162E+01      92   77    2       0.3373670550E+04      0.5348834746E+04      0.6101524120E+05      0.4794068162E+01
          0                 4           3            92   77     2       0.1954233456E+00      92   77    2       0.1363525379E+03      0.1905016457E+03      0.5348834746E+04      0.1954233456E+00
          0                 5           2            92   77     2       0.7849999112E-02      92   76    2      -0.5892323454E+01      0.9845499484E+01      0.1905016457E+03      0.7849999112E-02

    ------------------------------------------------
       NWT REQUIRED            5 OUTER ITERATIONS 
       AND A TOTAL OF         30 INNER ITERATIONS.
    ------------------------------------------------

 NO OUTPUT CONTROL FOR STRESS PERIOD   55   TIME STEP    8

 SOLVING FOR HEAD 
                                                   Max.-Head-Change                        Max.-Flux-Residual
  Residual-Control   Outer-Iter.   Inner-Iter.     Column Row Layer    Max.-Head-Change    Column Row Layer    Max.-Flux-Residual            L2-New               L2-Old           Solver-Max-Delh
          0                 1          11            92   77     2      -0.4731428469E+01      76   48    1      -0.1246845492E+06      0.4882347558E+06      0.9845499484E+01     -0.4731428469E+01
          0                 2           9            65    5     2      -0.2312282942E+02      77   48    1       0.1793882964E+05      0.5178354361E+05      0.4882347558E+06     -0.2312282942E+02
          0                 3           6            65    5     2       0.1430162801E+01      65    5    2       0.8262732656E+03      0.9244612027E+03      0.5178354361E+05      0.1430162801E+01
          0                 4           3            65    5     2       0.6294907039E-01      65    5    2       0.3623055690E+02      0.4363128733E+02      0.9244612027E+03      0.6294907039E-01
          0                 5           2            65    5     2       0.2761679788E-02      65    4    2      -0.1662367927E+01      0.2674089835E+01      0.4363128733E+02      0.2761679788E-02

    ------------------------------------------------
       NWT REQUIRED            5 OUTER ITERATIONS 
       AND A TOTAL OF         31 INNER ITERATIONS.
    ------------------------------------------------

 NO OUTPUT CONTROL FOR STRESS PERIOD   55   TIME STEP    9

 SOLVING FOR HEAD 
                                                   Max.-Head-Change                        Max.-Flux-Residual
  Residual-Control   Outer-Iter.   Inner-Iter.     Column Row Layer    Max.-Head-Change    Column Row Layer    Max.-Flux-Residual            L2-New               L2-Old           Solver-Max-Delh
          0                 1          11            65    5     2      -0.4138307624E+01      76   48    1      -0.1175277901E+06      0.4511750268E+06      0.2674089835E+01     -0.4138307624E+01
          0                 2           9            83   53     1      -0.7381933685E+00      76   48    1       0.1169313804E+05      0.4523392076E+05      0.4511750268E+06     -0.7381933685E+00
          0                 3           5            83   53     1       0.5510411859E-01      75   48    1       0.1128124247E+04      0.1137989224E+04      0.4523392076E+05      0.5510411859E-01
          0                 4           2            83   53     1       0.9157334156E-03      83   53    1       0.1533711605E+01      0.1904513714E+01      0.1137989224E+04      0.9157334156E-03

    ------------------------------------------------
       NWT REQUIRED            4 OUTER ITERATIONS 
       AND A TOTAL OF         27 INNER ITERATIONS.
    ------------------------------------------------

 NO OUTPUT CONTROL FOR STRESS PERIOD   55   TIME STEP   10

 SOLVING FOR HEAD 
                                                   Max.-Head-Change                        Max.-Flux-Residual
  Residual-Control   Outer-Iter.   Inner-Iter.     Column Row Layer    Max.-Head-Change    Column Row Layer    Max.-Flux-Residual            L2-New               L2-Old           Solver-Max-Delh
          0                 1          11            76   48     1      -0.2761679231E+01      76   48    1      -0.1105028576E+06      0.4187432089E+06      0.1904513714E+01     -0.2761679231E+01
          0                 2           9            75   48     1       0.5582894503E+00      75   48    1       0.2975440507E+05      0.5023323125E+05      0.4187432089E+06      0.5582894503E+00
          0                 3           4            83   53     1       0.2515115613E-02      81   52    1       0.1556433781E+02      0.2359114038E+02      0.5023323125E+05      0.2515115613E-02

    ------------------------------------------------
       NWT REQUIRED            3 OUTER ITERATIONS 
       AND A TOTAL OF         24 INNER ITERATIONS.
    ------------------------------------------------

 NO OUTPUT CONTROL FOR STRESS PERIOD   55   TIME STEP   11

 INTERPOLATION FOR HEAD OBS# 1656, ID 2303-55-355  CHANGED BECAUSE AT LEAST ONE
 NEIGHBORING CELL REQUIRED FOR INTERPOLATION IS DRY OR INACTIVE (OBS2BAS7SE)

 INTERPOLATION FOR HEAD OBS# 2182, ID 2355-55-343  CHANGED BECAUSE AT LEAST ONE
 NEIGHBORING CELL REQUIRED FOR INTERPOLATION IS DRY OR INACTIVE (OBS2BAS7SE)

 SOLVING FOR HEAD 
                                                   Max.-Head-Change                        Max.-Flux-Residual
  Residual-Control   Outer-Iter.   Inner-Iter.     Column Row Layer    Max.-Head-Change    Column Row Layer    Max.-Flux-Residual            L2-New               L2-Old           Solver-Max-Delh
          0                 1          11            76   48     1      -0.2558270219E+01      76   48    1      -0.1032883043E+06      0.3882584878E+06      0.2359114038E+02     -0.2558270219E+01
          0                 2           9            76   48     1       0.4839672762E+00      76   48    1       0.2603988470E+05      0.4565914149E+05      0.3882584878E+06      0.4839672762E+00
          0                 3           5            76   48     1       0.2551118218E-02      14    6    2      -0.1932985348E+03      0.2876964739E+03      0.4565914149E+05      0.2551118218E-02

    ------------------------------------------------
       NWT REQUIRED            3 OUTER ITERATIONS 
       AND A TOTAL OF         25 INNER ITERATIONS.
    ------------------------------------------------

 OUTPUT CONTROL FOR STRESS PERIOD   55   TIME STEP   12
    SAVE BUDGET
 UBDSV1 SAVING "         STORAGE" ON UNIT  39 AT TIME STEP 12, STRESS PERIOD  55
 UBDSV2 SAVING "   CONSTANT HEAD" ON UNIT  39 AT TIME STEP 12, STRESS PERIOD  55
 UBDSV1 SAVING "FLOW RIGHT FACE " ON UNIT  39 AT TIME STEP 12, STRESS PERIOD  55
 UBDSV1 SAVING "FLOW FRONT FACE " ON UNIT  39 AT TIME STEP 12, STRESS PERIOD  55
 UBDSV1 SAVING "FLOW LOWER FACE " ON UNIT  39 AT TIME STEP 12, STRESS PERIOD  55
 UBDSV3 SAVING "              ET" ON UNIT  39 AT TIME STEP 12, STRESS PERIOD  55
 UBDSV3 SAVING "        RECHARGE" ON UNIT  39 AT TIME STEP 12, STRESS PERIOD  55

 INTERPOLATION FOR HEAD OBS#  169, ID 3368-56-25   CHANGED BECAUSE AT LEAST ONE
 NEIGHBORING CELL REQUIRED FOR INTERPOLATION IS DRY OR INACTIVE (OBS2BAS7SE)

 INTERPOLATION FOR HEAD OBS#  196, ID 3228-56-20   CHANGED BECAUSE AT LEAST ONE
 NEIGHBORING CELL REQUIRED FOR INTERPOLATION IS DRY OR INACTIVE (OBS2BAS7SE)

 INTERPOLATION FOR HEAD OBS#  253, ID 3260-56-26   CHANGED BECAUSE AT LEAST ONE
 NEIGHBORING CELL REQUIRED FOR INTERPOLATION IS DRY OR INACTIVE (OBS2BAS7SE)

 INTERPOLATION FOR HEAD OBS#  637, ID 3014-56-24   CHANGED BECAUSE AT LEAST ONE
 NEIGHBORING CELL REQUIRED FOR INTERPOLATION IS DRY OR INACTIVE (OBS2BAS7SE)

 INTERPOLATION FOR HEAD OBS#  650, ID 3055-56-19   CHANGED BECAUSE AT LEAST ONE
 NEIGHBORING CELL REQUIRED FOR INTERPOLATION IS DRY OR INACTIVE (OBS2BAS7SE)

 INTERPOLATION FOR HEAD OBS#  774, ID 3008-56-26   CHANGED BECAUSE AT LEAST ONE
 NEIGHBORING CELL REQUIRED FOR INTERPOLATION IS DRY OR INACTIVE (OBS2BAS7SE)

 INTERPOLATION FOR HEAD OBS# 1334, ID 2852-56-19   CHANGED BECAUSE AT LEAST ONE
 NEIGHBORING CELL REQUIRED FOR INTERPOLATION IS DRY OR INACTIVE (OBS2BAS7SE)

 INTERPOLATION FOR HEAD OBS# 1339, ID 2869-56-24   CHANGED BECAUSE AT LEAST ONE
 NEIGHBORING CELL REQUIRED FOR INTERPOLATION IS DRY OR INACTIVE (OBS2BAS7SE)

 INTERPOLATION FOR HEAD OBS# 1402, ID 2840-56-19   CHANGED BECAUSE AT LEAST ONE
 NEIGHBORING CELL REQUIRED FOR INTERPOLATION IS DRY OR INACTIVE (OBS2BAS7SE)

 INTERPOLATION FOR HEAD OBS# 1741, ID 2618-56-23   CHANGED BECAUSE AT LEAST ONE
 NEIGHBORING CELL REQUIRED FOR INTERPOLATION IS DRY OR INACTIVE (OBS2BAS7SE)

 INTERPOLATION FOR HEAD OBS# 1833, ID 1908-56-18   CHANGED BECAUSE AT LEAST ONE
 NEIGHBORING CELL REQUIRED FOR INTERPOLATION IS DRY OR INACTIVE (OBS2BAS7SE)

 INTERPOLATION FOR HEAD OBS# 1867, ID 2606-56-26   CHANGED BECAUSE AT LEAST ONE
 NEIGHBORING CELL REQUIRED FOR INTERPOLATION IS DRY OR INACTIVE (OBS2BAS7SE)

 INTERPOLATION FOR HEAD OBS# 2525, ID 2243-56-25   CHANGED BECAUSE AT LEAST ONE
 NEIGHBORING CELL REQUIRED FOR INTERPOLATION IS DRY OR INACTIVE (OBS2BAS7SE)

 INTERPOLATION FOR HEAD OBS# 3194, ID 2443-56-20   CHANGED BECAUSE AT LEAST ONE
 NEIGHBORING CELL REQUIRED FOR INTERPOLATION IS DRY OR INACTIVE (OBS2BAS7SE)

 INTERPOLATION FOR HEAD OBS# 5397, ID 1705-56-16   CHANGED BECAUSE AT LEAST ONE
 NEIGHBORING CELL REQUIRED FOR INTERPOLATION IS DRY OR INACTIVE (OBS2BAS7SE)

 INTERPOLATION FOR HEAD OBS# 5401, ID 1530-56-16   CHANGED BECAUSE AT LEAST ONE
 NEIGHBORING CELL REQUIRED FOR INTERPOLATION IS DRY OR INACTIVE (OBS2BAS7SE)

 INTERPOLATION FOR HEAD OBS# 6240, ID 1164-56-17   CHANGED BECAUSE AT LEAST ONE
 NEIGHBORING CELL REQUIRED FOR INTERPOLATION IS DRY OR INACTIVE (OBS2BAS7SE)

 INTERPOLATION FOR HEAD OBS# 7374, ID 451-56-17    CHANGED BECAUSE AT LEAST ONE
 NEIGHBORING CELL REQUIRED FOR INTERPOLATION IS DRY OR INACTIVE (OBS2BAS7SE)

 INTERPOLATION FOR HEAD OBS# 7527, ID 269-56-10    CHANGED BECAUSE AT LEAST ONE
 NEIGHBORING CELL REQUIRED FOR INTERPOLATION IS DRY OR INACTIVE (OBS2BAS7SE)

 INTERPOLATION FOR HEAD OBS# 7557, ID 230-56-10    CHANGED BECAUSE AT LEAST ONE
 NEIGHBORING CELL REQUIRED FOR INTERPOLATION IS DRY OR INACTIVE (OBS2BAS7SE)

 INTERPOLATION FOR HEAD OBS# 7776, ID 178-56-11    CHANGED BECAUSE AT LEAST ONE
 NEIGHBORING CELL REQUIRED FOR INTERPOLATION IS DRY OR INACTIVE (OBS2BAS7SE)
1
  VOLUMETRIC BUDGET FOR ENTIRE MODEL AT END OF TIME STEP   12, STRESS PERIOD  55
  ------------------------------------------------------------------------------

     CUMULATIVE VOLUMES      L**3       RATES FOR THIS TIME STEP      L**3/T
     ------------------                 ------------------------

           IN:                                      IN:
           ---                                      ---
             STORAGE = 56913981440.0000               STORAGE =     6874617.5000
       CONSTANT HEAD = 20188829696.0000         CONSTANT HEAD =     1530539.8750
               WELLS =   324179520.0000                 WELLS =           0.0000
                  ET =           0.0000                    ET =           0.0000
            RECHARGE =414391304192.0000              RECHARGE =    17889016.0000

            TOTAL IN =491818287104.0000              TOTAL IN =    26294172.0000

          OUT:                                     OUT:
          ----                                     ----
             STORAGE =134764855296.0000               STORAGE =     3648510.2500
       CONSTANT HEAD =135404060672.0000         CONSTANT HEAD =     7821718.0000
               WELLS =   727151296.0000                 WELLS =       54206.0000
                  ET =220923199488.0000                    ET =    14769777.0000
            RECHARGE =           0.0000              RECHARGE =           0.0000

           TOTAL OUT =491819270144.0000             TOTAL OUT =    26294212.0000

            IN - OUT =     -983040.0000              IN - OUT =         -40.0000

 PERCENT DISCREPANCY =          -0.00     PERCENT DISCREPANCY =          -0.00






         TIME SUMMARY AT END OF TIME STEP   12 IN STRESS PERIOD   55
                    SECONDS     MINUTES      HOURS       DAYS        YEARS
                    -----------------------------------------------------------
   TIME STEP LENGTH 2.62800E+06  43800.      730.00      30.417     8.32763E-02
 STRESS PERIOD TIME 3.15360E+07 5.25600E+05  8760.0      365.00     0.99932    
         TOTAL TIME 1.73569E+09 2.89281E+07 4.82136E+05  20089.      55.001    
1
1
                            STRESS PERIOD NO.   56, LENGTH =   365.0000    
                            -----------------------------------------------

                              NUMBER OF TIME STEPS =    12

                               MULTIPLIER FOR DELT =     1.000

                            INITIAL TIME STEP SIZE =   30.41667    

 WELL NO.  LAYER   ROW   COL   STRESS RATE         
 --------------------------------------------------
      1      1     49     58     -0.5268E+05
      2      1     85     63     -0.5186E+05

      2 WELLS

 REUSING SURF FROM LAST STRESS PERIOD

 REUSING EVTR FROM LAST STRESS PERIOD

 REUSING EXDP FROM LAST STRESS PERIOD



                           RECHARGE
 READING ON UNIT   16 WITH FORMAT: (15F5.0)            


     63 TIME-VARIANT SPECIFIED-HEAD CELLS

 SOLVING FOR HEAD 
                                                   Max.-Head-Change                        Max.-Flux-Residual
  Residual-Control   Outer-Iter.   Inner-Iter.     Column Row Layer    Max.-Head-Change    Column Row Layer    Max.-Flux-Residual            L2-New               L2-Old           Solver-Max-Delh
          0                 1          11            13   85     1       0.1683055043E+02      89   66    1       0.1185205789E+06      0.4375259160E+06      0.2876964739E+03      0.1683055043E+02
          0                 2           9            92   68     1      -0.2217758603E+01      92   68    1      -0.9427887630E+05      0.1041150859E+06      0.4375259160E+06     -0.2217758603E+01
          0                 3           5            53  106     3       0.9584762099E-01      53  106    3       0.3043312689E+03      0.4278052238E+03      0.1041150859E+06      0.9584762099E-01
          0                 4           2            13   85     1      -0.1672484821E-02      66   47    1      -0.1699340388E+01      0.3065339467E+01      0.4278052238E+03     -0.1672484821E-02

    ------------------------------------------------
       NWT REQUIRED            4 OUTER ITERATIONS 
       AND A TOTAL OF         27 INNER ITERATIONS.
    ------------------------------------------------

 NO OUTPUT CONTROL FOR STRESS PERIOD   56   TIME STEP    1

 INTERPOLATION FOR HEAD OBS# 3607, ID 1370-56-31   CHANGED BECAUSE AT LEAST ONE
 NEIGHBORING CELL REQUIRED FOR INTERPOLATION IS DRY OR INACTIVE (OBS2BAS7SE)

 INTERPOLATION FOR HEAD OBS# 3696, ID 1479-56-34   CHANGED BECAUSE AT LEAST ONE
 NEIGHBORING CELL REQUIRED FOR INTERPOLATION IS DRY OR INACTIVE (OBS2BAS7SE)

 INTERPOLATION FOR HEAD OBS# 3753, ID 1427-56-33   CHANGED BECAUSE AT LEAST ONE
 NEIGHBORING CELL REQUIRED FOR INTERPOLATION IS DRY OR INACTIVE (OBS2BAS7SE)

 INTERPOLATION FOR HEAD OBS# 3770, ID 1405-56-33   CHANGED BECAUSE AT LEAST ONE
 NEIGHBORING CELL REQUIRED FOR INTERPOLATION IS DRY OR INACTIVE (OBS2BAS7SE)

 SOLVING FOR HEAD 
                                                   Max.-Head-Change                        Max.-Flux-Residual
  Residual-Control   Outer-Iter.   Inner-Iter.     Column Row Layer    Max.-Head-Change    Column Row Layer    Max.-Flux-Residual            L2-New               L2-Old           Solver-Max-Delh
          0                 1          11            89   66     1       0.2786100143E+01      89   66    1       0.1080542658E+06      0.3510239420E+06      0.3065339467E+01      0.2786100143E+01
          0                 2           9            53  106     3       0.4033967407E+00      89   66    1      -0.1092456511E+05      0.3637034437E+05      0.3510239420E+06      0.4033967407E+00
          0                 3           4            86   53     1       0.5670125374E-02      86   53    1       0.7731472621E+01      0.1329760981E+02      0.3637034437E+05      0.5670125374E-02

    ------------------------------------------------
       NWT REQUIRED            3 OUTER ITERATIONS 
       AND A TOTAL OF         24 INNER ITERATIONS.
    ------------------------------------------------

 NO OUTPUT CONTROL FOR STRESS PERIOD   56   TIME STEP    2

 SOLVING FOR HEAD 
                                                   Max.-Head-Change                        Max.-Flux-Residual
  Residual-Control   Outer-Iter.   Inner-Iter.     Column Row Layer    Max.-Head-Change    Column Row Layer    Max.-Flux-Residual            L2-New               L2-Old           Solver-Max-Delh
          0                 1          11            89   66     1       0.2551208615E+01      89   66    1       0.9863571916E+05      0.3171232058E+06      0.1329760981E+02      0.2551208615E+01
          0                 2           9            89   66     1      -0.2336290325E+00      89   66    1      -0.9957348328E+04      0.3176012339E+05      0.3171232058E+06     -0.2336290325E+00
          0                 3           4            27   79     2       0.1572167384E-02      86   53    1       0.2185216885E+01      0.8312489410E+01      0.3176012339E+05      0.1572167384E-02

    ------------------------------------------------
       NWT REQUIRED            3 OUTER ITERATIONS 
       AND A TOTAL OF         24 INNER ITERATIONS.
    ------------------------------------------------

 NO OUTPUT CONTROL FOR STRESS PERIOD   56   TIME STEP    3

 SOLVING FOR HEAD 
                                                   Max.-Head-Change                        Max.-Flux-Residual
  Residual-Control   Outer-Iter.   Inner-Iter.     Column Row Layer    Max.-Head-Change    Column Row Layer    Max.-Flux-Residual            L2-New               L2-Old           Solver-Max-Delh
          0                 1          11            89   66     1       0.2344438647E+01      89   66    1       0.9033224297E+05      0.2962937198E+06      0.8312489410E+01      0.2344438647E+01
          0                 2           9            89   66     1      -0.2144679934E+00      89   66    1      -0.9107096439E+04      0.2986393849E+05      0.2962937198E+06     -0.2144679934E+00
          0                 3           4            58   92     2      -0.2047890868E-02      58   92    2      -0.3364415812E+02      0.4264992190E+02      0.2986393849E+05     -0.2047890868E-02

    ------------------------------------------------
       NWT REQUIRED            3 OUTER ITERATIONS 
       AND A TOTAL OF         24 INNER ITERATIONS.
    ------------------------------------------------

 NO OUTPUT CONTROL FOR STRESS PERIOD   56   TIME STEP    4

 SOLVING FOR HEAD 
                                                   Max.-Head-Change                        Max.-Flux-Residual
  Residual-Control   Outer-Iter.   Inner-Iter.     Column Row Layer    Max.-Head-Change    Column Row Layer    Max.-Flux-Residual            L2-New               L2-Old           Solver-Max-Delh
          0                 1          11            89   66     1       0.2162804812E+01      89   66    1       0.8302094267E+05      0.2812824484E+06      0.4264992190E+02      0.2162804812E+01
          0                 2           9            89   66     1      -0.1980814110E+00      89   66    1      -0.8360353995E+04      0.2817385429E+05      0.2812824484E+06     -0.1980814110E+00
          0                 3           4            27   79     2       0.1567738981E-02      58   93    3       0.3153477266E+01      0.7491928169E+01      0.2817385429E+05      0.1567738981E-02

    ------------------------------------------------
       NWT REQUIRED            3 OUTER ITERATIONS 
       AND A TOTAL OF         24 INNER ITERATIONS.
    ------------------------------------------------

 NO OUTPUT CONTROL FOR STRESS PERIOD   56   TIME STEP    5

 SOLVING FOR HEAD 
                                                   Max.-Head-Change                        Max.-Flux-Residual
  Residual-Control   Outer-Iter.   Inner-Iter.     Column Row Layer    Max.-Head-Change    Column Row Layer    Max.-Flux-Residual            L2-New               L2-Old           Solver-Max-Delh
          0                 1          11            91   67     1       0.2056730328E+01      89   66    1       0.7658097782E+05      0.2695635920E+06      0.7491928169E+01      0.2056730328E+01
          0                 2           9            91   67     1      -0.1873343893E+00      89   66    1      -0.7703979695E+04      0.2700023939E+05      0.2695635920E+06     -0.1873343893E+00
          0                 3           4            27   79     2       0.1565302238E-02      73   14    1       0.1698963650E+01      0.6598099211E+01      0.2700023939E+05      0.1565302238E-02

    ------------------------------------------------
       NWT REQUIRED            3 OUTER ITERATIONS 
       AND A TOTAL OF         24 INNER ITERATIONS.
    ------------------------------------------------

 NO OUTPUT CONTROL FOR STRESS PERIOD   56   TIME STEP    6

 SOLVING FOR HEAD 
                                                   Max.-Head-Change                        Max.-Flux-Residual
  Residual-Control   Outer-Iter.   Inner-Iter.     Column Row Layer    Max.-Head-Change    Column Row Layer    Max.-Flux-Residual            L2-New               L2-Old           Solver-Max-Delh
          0                 1          11            91   67     1       0.1986456276E+01      91   67    1       0.7284442525E+05      0.2600527550E+06      0.6598099211E+01      0.1986456276E+01
          0                 2           9            88   67     2       0.3105349734E+00      91   67    1      -0.7300777904E+04      0.2604746455E+05      0.2600527550E+06      0.3105349734E+00
          0                 3           4            88   67     2      -0.2823204809E-01      88   67    2      -0.9045249625E+02      0.9951197126E+02      0.2604746455E+05     -0.2823204809E-01
          0                 4           1            27   79     2       0.4040906826E-03      27   79    2       0.3095005517E-01      0.9959589042E-01      0.9951197126E+02      0.4040906826E-03

    ------------------------------------------------
       NWT REQUIRED            4 OUTER ITERATIONS 
       AND A TOTAL OF         25 INNER ITERATIONS.
    ------------------------------------------------

 NO OUTPUT CONTROL FOR STRESS PERIOD   56   TIME STEP    7

 SOLVING FOR HEAD 
                                                   Max.-Head-Change                        Max.-Flux-Residual
  Residual-Control   Outer-Iter.   Inner-Iter.     Column Row Layer    Max.-Head-Change    Column Row Layer    Max.-Flux-Residual            L2-New               L2-Old           Solver-Max-Delh
          0                 1          11            88   67     2       0.3210681466E+01      91   67    1       0.7035874907E+05      0.2520350328E+06      0.9959589042E-01      0.3210681466E+01
          0                 2           9            88   67     2      -0.2917664476E+00      91   67    1      -0.7050332490E+04      0.2531778120E+05      0.2520350328E+06     -0.2917664476E+00
          0                 3           5            23    3     2       0.2268910520E-02      23    3    2       0.1283303548E+03      0.1712206896E+03      0.2531778120E+05      0.2268910520E-02

    ------------------------------------------------
       NWT REQUIRED            3 OUTER ITERATIONS 
       AND A TOTAL OF         25 INNER ITERATIONS.
    ------------------------------------------------

 NO OUTPUT CONTROL FOR STRESS PERIOD   56   TIME STEP    8

 SOLVING FOR HEAD 
                                                   Max.-Head-Change                        Max.-Flux-Residual
  Residual-Control   Outer-Iter.   Inner-Iter.     Column Row Layer    Max.-Head-Change    Column Row Layer    Max.-Flux-Residual            L2-New               L2-Old           Solver-Max-Delh
          0                 1          11            91   67     1       0.1857725482E+01      91   67    1       0.6801877321E+05      0.2453664307E+06      0.1712206896E+03      0.1857725482E+01
          0                 2           9            91   67     1      -0.1691335296E+00      91   67    1      -0.6814670276E+04      0.2459786055E+05      0.2453664307E+06     -0.1691335296E+00
          0                 3           5            23    3     2      -0.5589906921E-02      23    3    2      -0.1473357188E+03      0.1525669292E+03      0.2459786055E+05     -0.5589906921E-02

    ------------------------------------------------
       NWT REQUIRED            3 OUTER ITERATIONS 
       AND A TOTAL OF         25 INNER ITERATIONS.
    ------------------------------------------------

 NO OUTPUT CONTROL FOR STRESS PERIOD   56   TIME STEP    9

 SOLVING FOR HEAD 
                                                   Max.-Head-Change                        Max.-Flux-Residual
  Residual-Control   Outer-Iter.   Inner-Iter.     Column Row Layer    Max.-Head-Change    Column Row Layer    Max.-Flux-Residual            L2-New               L2-Old           Solver-Max-Delh
          0                 1          11            91   67     1       0.1798495457E+01      91   67    1       0.6580112707E+05      0.2393485609E+06      0.1525669292E+03      0.1798495457E+01
          0                 2           9            91   67     1      -0.1637202422E+00      91   67    1      -0.6591425357E+04      0.2394268673E+05      0.2393485609E+06     -0.1637202422E+00
          0                 3           4            27   79     2       0.1554939884E-02      73   14    1       0.1402858105E+01      0.5991971671E+01      0.2394268673E+05      0.1554939884E-02

    ------------------------------------------------
       NWT REQUIRED            3 OUTER ITERATIONS 
       AND A TOTAL OF         24 INNER ITERATIONS.
    ------------------------------------------------

 NO OUTPUT CONTROL FOR STRESS PERIOD   56   TIME STEP   10

 SOLVING FOR HEAD 
                                                   Max.-Head-Change                        Max.-Flux-Residual
  Residual-Control   Outer-Iter.   Inner-Iter.     Column Row Layer    Max.-Head-Change    Column Row Layer    Max.-Flux-Residual            L2-New               L2-Old           Solver-Max-Delh
          0                 1          11            91   67     1       0.1742569250E+01      91   67    1       0.6370461268E+05      0.2339804869E+06      0.5991971671E+01      0.1742569250E+01
          0                 2           9            91   67     1      -0.1586105108E+00      91   67    1      -0.6380458047E+04      0.2340568813E+05      0.2339804869E+06     -0.1586105108E+00
          0                 3           4            27   79     2       0.1552378854E-02      73   14    1       0.1344907396E+01      0.5894850276E+01      0.2340568813E+05      0.1552378854E-02

    ------------------------------------------------
       NWT REQUIRED            3 OUTER ITERATIONS 
       AND A TOTAL OF         24 INNER ITERATIONS.
    ------------------------------------------------

 NO OUTPUT CONTROL FOR STRESS PERIOD   56   TIME STEP   11

 SOLVING FOR HEAD 
                                                   Max.-Head-Change                        Max.-Flux-Residual
  Residual-Control   Outer-Iter.   Inner-Iter.     Column Row Layer    Max.-Head-Change    Column Row Layer    Max.-Flux-Residual            L2-New               L2-Old           Solver-Max-Delh
          0                 1          11            91   67     1       0.1689792841E+01      91   67    1       0.6172495757E+05      0.2291741109E+06      0.5894850276E+01      0.1689792841E+01
          0                 2           9            91   67     1      -0.1537899845E+00      91   67    1      -0.6181323387E+04      0.2292826267E+05      0.2291741109E+06     -0.1537899845E+00
          0                 3           4            27   79     2       0.1549690996E-02      87   52    1      -0.2231908155E+02      0.2307852251E+02      0.2292826267E+05      0.1549690996E-02

    ------------------------------------------------
       NWT REQUIRED            3 OUTER ITERATIONS 
       AND A TOTAL OF         24 INNER ITERATIONS.
    ------------------------------------------------

 OUTPUT CONTROL FOR STRESS PERIOD   56   TIME STEP   12
    SAVE BUDGET
    SAVE HEAD FOR LAYERS:   1  2  3
 UBDSV1 SAVING "         STORAGE" ON UNIT  39 AT TIME STEP 12, STRESS PERIOD  56
 UBDSV2 SAVING "   CONSTANT HEAD" ON UNIT  39 AT TIME STEP 12, STRESS PERIOD  56
 UBDSV1 SAVING "FLOW RIGHT FACE " ON UNIT  39 AT TIME STEP 12, STRESS PERIOD  56
 UBDSV1 SAVING "FLOW FRONT FACE " ON UNIT  39 AT TIME STEP 12, STRESS PERIOD  56
 UBDSV1 SAVING "FLOW LOWER FACE " ON UNIT  39 AT TIME STEP 12, STRESS PERIOD  56
 UBDSV3 SAVING "              ET" ON UNIT  39 AT TIME STEP 12, STRESS PERIOD  56
 UBDSV3 SAVING "        RECHARGE" ON UNIT  39 AT TIME STEP 12, STRESS PERIOD  56

 HEAD WILL BE SAVED ON UNIT   31 AT END OF TIME STEP   12, STRESS PERIOD   56
1
  VOLUMETRIC BUDGET FOR ENTIRE MODEL AT END OF TIME STEP   12, STRESS PERIOD  56
  ------------------------------------------------------------------------------

     CUMULATIVE VOLUMES      L**3       RATES FOR THIS TIME STEP      L**3/T
     ------------------                 ------------------------

           IN:                                      IN:
           ---                                      ---
             STORAGE = 58462810112.0000               STORAGE =     3527183.2500
       CONSTANT HEAD = 20725014528.0000         CONSTANT HEAD =     1431373.5000
               WELLS =   324179520.0000                 WELLS =           0.0000
                  ET =           0.0000                    ET =           0.0000
            RECHARGE =422038568960.0000              RECHARGE =    20951054.0000

            TOTAL IN =501550579712.0000              TOTAL IN =    25909612.0000

          OUT:                                     OUT:
          ----                                     ----
             STORAGE =136304541696.0000               STORAGE =     3702407.7500
       CONSTANT HEAD =138245259264.0000         CONSTANT HEAD =     7773367.0000
               WELLS =   765308608.0000                 WELLS =      104541.0000
                  ET =226236284928.0000                    ET =    14329321.0000
            RECHARGE =           0.0000              RECHARGE =           0.0000

           TOTAL OUT =501551398912.0000             TOTAL OUT =    25909636.0000

            IN - OUT =     -819200.0000              IN - OUT =         -24.0000

 PERCENT DISCREPANCY =          -0.00     PERCENT DISCREPANCY =          -0.00






         TIME SUMMARY AT END OF TIME STEP   12 IN STRESS PERIOD   56
                    SECONDS     MINUTES      HOURS       DAYS        YEARS
                    -----------------------------------------------------------
   TIME STEP LENGTH 2.62800E+06  43800.      730.00      30.417     8.32763E-02
 STRESS PERIOD TIME 3.15360E+07 5.25600E+05  8760.0      365.00     0.99932    
         TOTAL TIME 1.76722E+09 2.94537E+07 4.90896E+05  20454.      56.000    
1
1
                            STRESS PERIOD NO.   57, LENGTH =   366.0000    
                            -----------------------------------------------

                              NUMBER OF TIME STEPS =    12

                               MULTIPLIER FOR DELT =     1.000

                            INITIAL TIME STEP SIZE =   30.50000    

 WELL NO.  LAYER   ROW   COL   STRESS RATE         
 --------------------------------------------------
      1      1     86     63     -0.5186E+05

      1 WELL 

 REUSING SURF FROM LAST STRESS PERIOD

 REUSING EVTR FROM LAST STRESS PERIOD

 REUSING EXDP FROM LAST STRESS PERIOD



                           RECHARGE
 READING ON UNIT   16 WITH FORMAT: (15F5.0)            


     63 TIME-VARIANT SPECIFIED-HEAD CELLS

 SOLVING FOR HEAD 
                                                   Max.-Head-Change                        Max.-Flux-Residual
  Residual-Control   Outer-Iter.   Inner-Iter.     Column Row Layer    Max.-Head-Change    Column Row Layer    Max.-Flux-Residual            L2-New               L2-Old           Solver-Max-Delh
          0                 1          11            15   82     1      -0.1392262202E+02      79   49    1      -0.1583376357E+06      0.7528851750E+06      0.2307852251E+02     -0.1392262202E+02
          0                 2          10            77   45     2       0.5814650229E+00      79   49    1       0.3431240174E+05      0.8083079858E+05      0.7528851750E+06      0.5814650229E+00
          0                 3           6            53  107     3       0.1341409270E-01      63   86    1      -0.1228343596E+03      0.1957030642E+03      0.8083079858E+05      0.1341409270E-01
          0                 4           4            15   82     1       0.5908785802E-03      63   86    1      -0.9545010626E+01      0.1063850007E+02      0.1957030642E+03      0.5908785802E-03

    ------------------------------------------------
       NWT REQUIRED            4 OUTER ITERATIONS 
       AND A TOTAL OF         31 INNER ITERATIONS.
    ------------------------------------------------

 NO OUTPUT CONTROL FOR STRESS PERIOD   57   TIME STEP    1

 SOLVING FOR HEAD 
                                                   Max.-Head-Change                        Max.-Flux-Residual
  Residual-Control   Outer-Iter.   Inner-Iter.     Column Row Layer    Max.-Head-Change    Column Row Layer    Max.-Flux-Residual            L2-New               L2-Old           Solver-Max-Delh
          0                 1          11            81   45     1      -0.3528292032E+01      89   66    1      -0.1301160620E+06      0.6105619946E+06      0.1063850007E+02     -0.3528292032E+01
          0                 2          10            81   45     1       0.3201333444E+00      89   66    1       0.1279547842E+05      0.6118638772E+05      0.6105619946E+06      0.3201333444E+00
          0                 3           6            69   21     1       0.1428074909E-01      64   45    1      -0.9825479747E+02      0.1810360063E+03      0.6118638772E+05      0.1428074909E-01
          0                 4           3            27   79     2       0.3925873224E-03      64   45    1      -0.8108572766E+01      0.8434613609E+01      0.1810360063E+03      0.3925873224E-03

    ------------------------------------------------
       NWT REQUIRED            4 OUTER ITERATIONS 
       AND A TOTAL OF         30 INNER ITERATIONS.
    ------------------------------------------------

 NO OUTPUT CONTROL FOR STRESS PERIOD   57   TIME STEP    2

 SOLVING FOR HEAD 
                                                   Max.-Head-Change                        Max.-Flux-Residual
  Residual-Control   Outer-Iter.   Inner-Iter.     Column Row Layer    Max.-Head-Change    Column Row Layer    Max.-Flux-Residual            L2-New               L2-Old           Solver-Max-Delh
          0                 1          11            81   45     1      -0.3374457444E+01      89   66    1      -0.1145411908E+06      0.5355327145E+06      0.8434613609E+01     -0.3374457444E+01
          0                 2          10            81   45     1       0.3062083102E+00      89   66    1       0.1126870257E+05      0.5340138820E+05      0.5355327145E+06      0.3062083102E+00
          0                 3           5            27   79     2       0.1519411006E-02      89   66    1      -0.5061735081E+02      0.7169502548E+02      0.5340138820E+05      0.1519411006E-02

    ------------------------------------------------
       NWT REQUIRED            3 OUTER ITERATIONS 
       AND A TOTAL OF         26 INNER ITERATIONS.
    ------------------------------------------------

 NO OUTPUT CONTROL FOR STRESS PERIOD   57   TIME STEP    3

 SOLVING FOR HEAD 
                                                   Max.-Head-Change                        Max.-Flux-Residual
  Residual-Control   Outer-Iter.   Inner-Iter.     Column Row Layer    Max.-Head-Change    Column Row Layer    Max.-Flux-Residual            L2-New               L2-Old           Solver-Max-Delh
          0                 1          11            81   45     1      -0.3230088570E+01      89   66    1      -0.1014710961E+06      0.4848227352E+06      0.7169502548E+02     -0.3230088570E+01
          0                 2          10            81   45     1       0.2931339295E+00      88   65    1       0.9740146759E+04      0.4862302385E+05      0.4848227352E+06      0.2931339295E+00
          0                 3           5            55   84     2       0.2341965499E-01      55   84    2       0.1455968445E+03      0.1905540417E+03      0.4862302385E+05      0.2341965499E-01
          0                 4           2            27   79     2       0.3961657769E-03      71   49    1      -0.1729574200E+01      0.1940686804E+01      0.1905540417E+03      0.3961657769E-03

    ------------------------------------------------
       NWT REQUIRED            4 OUTER ITERATIONS 
       AND A TOTAL OF         28 INNER ITERATIONS.
    ------------------------------------------------

 NO OUTPUT CONTROL FOR STRESS PERIOD   57   TIME STEP    4

 SOLVING FOR HEAD 
                                                   Max.-Head-Change                        Max.-Flux-Residual
  Residual-Control   Outer-Iter.   Inner-Iter.     Column Row Layer    Max.-Head-Change    Column Row Layer    Max.-Flux-Residual            L2-New               L2-Old           Solver-Max-Delh
          0                 1          11            81   45     1      -0.3094398366E+01      88   65    1      -0.9147983096E+05      0.4475564781E+06      0.1940686804E+01     -0.3094398366E+01
          0                 2          10            81   45     1       0.2808494894E+00      87   51    1       0.1121525109E+05      0.4571931195E+05      0.4475564781E+06      0.2808494894E+00
          0                 3           5            26   42     2      -0.4234690310E-02      26   42    2      -0.1967397371E+03      0.2069710334E+03      0.4571931195E+05     -0.4234690310E-02

    ------------------------------------------------
       NWT REQUIRED            3 OUTER ITERATIONS 
       AND A TOTAL OF         26 INNER ITERATIONS.
    ------------------------------------------------

 NO OUTPUT CONTROL FOR STRESS PERIOD   57   TIME STEP    5

 SOLVING FOR HEAD 
                                                   Max.-Head-Change                        Max.-Flux-Residual
  Residual-Control   Outer-Iter.   Inner-Iter.     Column Row Layer    Max.-Head-Change    Column Row Layer    Max.-Flux-Residual            L2-New               L2-Old           Solver-Max-Delh
          0                 1          11            81   45     1      -0.2966705040E+01      88   65    1      -0.8563003931E+05      0.4175283870E+06      0.2069710334E+03     -0.2966705040E+01
          0                 2          10            81   45     1       0.2692836316E+00      68   47    1       0.1100114972E+05      0.4290749838E+05      0.4175283870E+06      0.2692836316E+00
          0                 3           5            27   79     2       0.1530500161E-02      73   15    1       0.1112941761E+01      0.7430384464E+01      0.4290749838E+05      0.1530500161E-02

    ------------------------------------------------
       NWT REQUIRED            3 OUTER ITERATIONS 
       AND A TOTAL OF         26 INNER ITERATIONS.
    ------------------------------------------------

 NO OUTPUT CONTROL FOR STRESS PERIOD   57   TIME STEP    6

 SOLVING FOR HEAD 
                                                   Max.-Head-Change                        Max.-Flux-Residual
  Residual-Control   Outer-Iter.   Inner-Iter.     Column Row Layer    Max.-Head-Change    Column Row Layer    Max.-Flux-Residual            L2-New               L2-Old           Solver-Max-Delh
          0                 1          11            81   45     1      -0.2846424082E+01      81   46    1      -0.8113659681E+05      0.3924110919E+06      0.7430384464E+01     -0.2846424082E+01
          0                 2          10            81   45     1       0.2583871613E+00      81   46    1       0.8101223108E+04      0.3916509507E+05      0.3924110919E+06      0.2583871613E+00
          0                 3           5            27   79     2       0.1527977216E-02      88   50    2      -0.2398212774E+01      0.7959869986E+01      0.3916509507E+05      0.1527977216E-02

    ------------------------------------------------
       NWT REQUIRED            3 OUTER ITERATIONS 
       AND A TOTAL OF         26 INNER ITERATIONS.
    ------------------------------------------------

 NO OUTPUT CONTROL FOR STRESS PERIOD   57   TIME STEP    7

 SOLVING FOR HEAD 
                                                   Max.-Head-Change                        Max.-Flux-Residual
  Residual-Control   Outer-Iter.   Inner-Iter.     Column Row Layer    Max.-Head-Change    Column Row Layer    Max.-Flux-Residual            L2-New               L2-Old           Solver-Max-Delh
          0                 1          11            81   45     1      -0.2733028057E+01      81   46    1      -0.7844269788E+05      0.3714070198E+06      0.7959869986E+01     -0.2733028057E+01
          0                 2          10            81   45     1       0.2481126342E+00      81   46    1       0.7832746936E+04      0.3705840192E+05      0.3714070198E+06      0.2481126342E+00
          0                 3           5            27   79     2       0.1525364955E-02      88   50    3       0.6202322450E+01      0.1134277871E+02      0.3705840192E+05      0.1525364955E-02

    ------------------------------------------------
       NWT REQUIRED            3 OUTER ITERATIONS 
       AND A TOTAL OF         26 INNER ITERATIONS.
    ------------------------------------------------

 NO OUTPUT CONTROL FOR STRESS PERIOD   57   TIME STEP    8

 SOLVING FOR HEAD 
                                                   Max.-Head-Change                        Max.-Flux-Residual
  Residual-Control   Outer-Iter.   Inner-Iter.     Column Row Layer    Max.-Head-Change    Column Row Layer    Max.-Flux-Residual            L2-New               L2-Old           Solver-Max-Delh
          0                 1          11            81   45     1      -0.2626034356E+01      81   46    1      -0.7587692004E+05      0.3536139726E+06      0.1134277871E+02     -0.2626034356E+01
          0                 2          10            92   68     1       0.3327161619E+00      81   46    1       0.7577004939E+04      0.3536506707E+05      0.3536139726E+06      0.3327161619E+00
          0                 3           5            92   68     1      -0.2698454488E+00      92   68    1      -0.1257193059E+05      0.1257194463E+05      0.3536506707E+05     -0.2698454488E+00
          0                 4           2            92   68     1      -0.2429419929E-01      92   68    1      -0.1131685543E+04      0.1131691920E+04      0.1257194463E+05     -0.2429419929E-01
          0                 5           2            92   68     1      -0.2184334500E-02      92   68    1      -0.1017402921E+03      0.1017408714E+03      0.1131691920E+04     -0.2184334500E-02

    ------------------------------------------------
       NWT REQUIRED            5 OUTER ITERATIONS 
       AND A TOTAL OF         30 INNER ITERATIONS.
    ------------------------------------------------

 NO OUTPUT CONTROL FOR STRESS PERIOD   57   TIME STEP    9

 SOLVING FOR HEAD 
                                                   Max.-Head-Change                        Max.-Flux-Residual
  Residual-Control   Outer-Iter.   Inner-Iter.     Column Row Layer    Max.-Head-Change    Column Row Layer    Max.-Flux-Residual            L2-New               L2-Old           Solver-Max-Delh
          0                 1          11            81   45     1      -0.2525003897E+01      81   46    1      -0.7343137916E+05      0.3380811707E+06      0.1017408714E+03     -0.2525003897E+01
          0                 2          10            92   68     1      -0.3848801897E+01      92   68    1      -0.1242325543E+05      0.3794480890E+05      0.3380811707E+06     -0.3848801897E+01
          0                 3           5            92   68     1       0.3077311401E+00      92   68    1       0.1092101876E+04      0.1106750099E+04      0.3794480890E+05      0.3077311401E+00
          0                 4           2            92   68     1       0.3389758101E-02      92   68    1       0.1196972496E+02      0.1213277491E+02      0.1106750099E+04      0.3389758101E-02

    ------------------------------------------------
       NWT REQUIRED            4 OUTER ITERATIONS 
       AND A TOTAL OF         28 INNER ITERATIONS.
    ------------------------------------------------

 NO OUTPUT CONTROL FOR STRESS PERIOD   57   TIME STEP   10

 SOLVING FOR HEAD 
                                                   Max.-Head-Change                        Max.-Flux-Residual
  Residual-Control   Outer-Iter.   Inner-Iter.     Column Row Layer    Max.-Head-Change    Column Row Layer    Max.-Flux-Residual            L2-New               L2-Old           Solver-Max-Delh
          0                 1          11            81   45     1      -0.2429509457E+01      81   46    1      -0.7109886444E+05      0.3233539146E+06      0.1213277491E+02     -0.2429509457E+01
          0                 2          10            81   45     1       0.2206032783E+00      81   46    1       0.7100666548E+04      0.3274427407E+05      0.3233539146E+06      0.2206032783E+00
          0                 3           5            90   51     1       0.8228115385E-02      90   51    1       0.3463072536E+03      0.3463819343E+03      0.3274427407E+05      0.8228115385E-02

    ------------------------------------------------
       NWT REQUIRED            3 OUTER ITERATIONS 
       AND A TOTAL OF         26 INNER ITERATIONS.
    ------------------------------------------------

 NO OUTPUT CONTROL FOR STRESS PERIOD   57   TIME STEP   11

 SOLVING FOR HEAD 
                                                   Max.-Head-Change                        Max.-Flux-Residual
  Residual-Control   Outer-Iter.   Inner-Iter.     Column Row Layer    Max.-Head-Change    Column Row Layer    Max.-Flux-Residual            L2-New               L2-Old           Solver-Max-Delh
          0                 1          11            81   45     1      -0.2339197226E+01      81   46    1      -0.6887264578E+05      0.3080897628E+06      0.3463819343E+03     -0.2339197226E+01
          0                 2          10            90   51     1       0.2489643705E+00      90   51    1       0.1056734726E+05      0.3204107540E+05      0.3080897628E+06      0.2489643705E+00
          0                 3           5            87   53     3       0.2102001142E-02      58   92    2       0.1283750676E+02      0.1838994874E+02      0.3204107540E+05      0.2102001142E-02

    ------------------------------------------------
       NWT REQUIRED            3 OUTER ITERATIONS 
       AND A TOTAL OF         26 INNER ITERATIONS.
    ------------------------------------------------

 OUTPUT CONTROL FOR STRESS PERIOD   57   TIME STEP   12
    SAVE BUDGET
 UBDSV1 SAVING "         STORAGE" ON UNIT  39 AT TIME STEP 12, STRESS PERIOD  57
 UBDSV2 SAVING "   CONSTANT HEAD" ON UNIT  39 AT TIME STEP 12, STRESS PERIOD  57
 UBDSV1 SAVING "FLOW RIGHT FACE " ON UNIT  39 AT TIME STEP 12, STRESS PERIOD  57
 UBDSV1 SAVING "FLOW FRONT FACE " ON UNIT  39 AT TIME STEP 12, STRESS PERIOD  57
 UBDSV1 SAVING "FLOW LOWER FACE " ON UNIT  39 AT TIME STEP 12, STRESS PERIOD  57
 UBDSV3 SAVING "              ET" ON UNIT  39 AT TIME STEP 12, STRESS PERIOD  57
 UBDSV3 SAVING "        RECHARGE" ON UNIT  39 AT TIME STEP 12, STRESS PERIOD  57
1
  VOLUMETRIC BUDGET FOR ENTIRE MODEL AT END OF TIME STEP   12, STRESS PERIOD  57
  ------------------------------------------------------------------------------

     CUMULATIVE VOLUMES      L**3       RATES FOR THIS TIME STEP      L**3/T
     ------------------                 ------------------------

           IN:                                      IN:
           ---                                      ---
             STORAGE = 61232996352.0000               STORAGE =     6417575.5000
       CONSTANT HEAD = 21230366720.0000         CONSTANT HEAD =     1340260.6250
               WELLS =   324179520.0000                 WELLS =           0.0000
                  ET =           0.0000                    ET =           0.0000
            RECHARGE =427458265088.0000              RECHARGE =    14807526.0000

            TOTAL IN =510245797888.0000              TOTAL IN =    22565362.0000

          OUT:                                     OUT:
          ----                                     ----
             STORAGE =137457631232.0000               STORAGE =     2840525.2500
       CONSTANT HEAD =141091143680.0000         CONSTANT HEAD =     7764993.5000
               WELLS =   784289728.0000                 WELLS =       51862.0000
                  ET =230913425408.0000                    ET =    11908008.0000
            RECHARGE =           0.0000              RECHARGE =           0.0000

           TOTAL OUT =510246518784.0000             TOTAL OUT =    22565388.0000

            IN - OUT =     -720896.0000              IN - OUT =         -26.0000

 PERCENT DISCREPANCY =          -0.00     PERCENT DISCREPANCY =          -0.00






         TIME SUMMARY AT END OF TIME STEP   12 IN STRESS PERIOD   57
                    SECONDS     MINUTES      HOURS       DAYS        YEARS
                    -----------------------------------------------------------
   TIME STEP LENGTH 2.63520E+06  43920.      732.00      30.500     8.35044E-02
 STRESS PERIOD TIME 3.16224E+07 5.27040E+05  8784.0      366.00      1.0021    
         TOTAL TIME 1.79885E+09 2.99808E+07 4.99680E+05  20820.      57.002    
1
1
                            STRESS PERIOD NO.   58, LENGTH =   365.0000    
                            -----------------------------------------------

                              NUMBER OF TIME STEPS =    12

                               MULTIPLIER FOR DELT =     1.000

                            INITIAL TIME STEP SIZE =   30.41667    

 WELL NO.  LAYER   ROW   COL   STRESS RATE         
 --------------------------------------------------
      1      1     87     63     -0.4162E+05

      1 WELL 

 REUSING SURF FROM LAST STRESS PERIOD

 REUSING EVTR FROM LAST STRESS PERIOD

 REUSING EXDP FROM LAST STRESS PERIOD



                           RECHARGE
 READING ON UNIT   16 WITH FORMAT: (15F5.0)            


     63 TIME-VARIANT SPECIFIED-HEAD CELLS

 SOLVING FOR HEAD 
                                                   Max.-Head-Change                        Max.-Flux-Residual
  Residual-Control   Outer-Iter.   Inner-Iter.     Column Row Layer    Max.-Head-Change    Column Row Layer    Max.-Flux-Residual            L2-New               L2-Old           Solver-Max-Delh
          0                 1          11            92   77     2      -0.1243835666E+02      81   46    1      -0.7533914612E+05      0.3632958483E+06      0.1838994874E+02     -0.1243835666E+02
          0                 2          10            92   77     2       0.5323369095E+00      81   46    1       0.7523727848E+04      0.3648808741E+05      0.3632958483E+06      0.5323369095E+00
          0                 3           4            92   77     2       0.2277865857E-01      72   15    2       0.4385118665E+02      0.8697356122E+02      0.3648808741E+05      0.2277865857E-01
          0                 4           3            92   77     2       0.9828190963E-03      90   65    2       0.2236957483E+01      0.2942045920E+01      0.8697356122E+02      0.9828190963E-03

    ------------------------------------------------
       NWT REQUIRED            4 OUTER ITERATIONS 
       AND A TOTAL OF         28 INNER ITERATIONS.
    ------------------------------------------------

 NO OUTPUT CONTROL FOR STRESS PERIOD   58   TIME STEP    1

 SOLVING FOR HEAD 
                                                   Max.-Head-Change                        Max.-Flux-Residual
  Residual-Control   Outer-Iter.   Inner-Iter.     Column Row Layer    Max.-Head-Change    Column Row Layer    Max.-Flux-Residual            L2-New               L2-Old           Solver-Max-Delh
          0                 1          11            81   45     1      -0.2463664218E+01      81   46    1      -0.7303047001E+05      0.2929957614E+06      0.2942045920E+01     -0.2463664218E+01
          0                 2           9            72   15     2       0.3147823686E+00      72   15    2       0.1119394452E+05      0.3180030367E+05      0.2929957614E+06      0.3147823686E+00
          0                 3           4            90   66     3       0.3096767248E-02      90   65    2      -0.6869536772E+02      0.8579222325E+02      0.3180030367E+05      0.3096767248E-02

    ------------------------------------------------
       NWT REQUIRED            3 OUTER ITERATIONS 
       AND A TOTAL OF         24 INNER ITERATIONS.
    ------------------------------------------------

 NO OUTPUT CONTROL FOR STRESS PERIOD   58   TIME STEP    2

 SOLVING FOR HEAD 
                                                   Max.-Head-Change                        Max.-Flux-Residual
  Residual-Control   Outer-Iter.   Inner-Iter.     Column Row Layer    Max.-Head-Change    Column Row Layer    Max.-Flux-Residual            L2-New               L2-Old           Solver-Max-Delh
          0                 1          11            81   45     1      -0.2376221667E+01      81   46    1      -0.7082894297E+05      0.2715350925E+06      0.8579222325E+02     -0.2376221667E+01
          0                 2           9            81   45     1       0.2157404600E+00      81   46    1       0.7074038877E+04      0.2719647466E+05      0.2715350925E+06      0.2157404600E+00
          0                 3           4            70   19     1       0.1246811973E-01      70   19    1       0.1140995780E+03      0.1318791078E+03      0.2719647466E+05      0.1246811973E-01
          0                 4           2            27   79     2       0.3901853580E-03      70   19    1       0.3731319644E+00      0.3961904204E+00      0.1318791078E+03      0.3901853580E-03

    ------------------------------------------------
       NWT REQUIRED            4 OUTER ITERATIONS 
       AND A TOTAL OF         26 INNER ITERATIONS.
    ------------------------------------------------

 NO OUTPUT CONTROL FOR STRESS PERIOD   58   TIME STEP    3

 SOLVING FOR HEAD 
                                                   Max.-Head-Change                        Max.-Flux-Residual
  Residual-Control   Outer-Iter.   Inner-Iter.     Column Row Layer    Max.-Head-Change    Column Row Layer    Max.-Flux-Residual            L2-New               L2-Old           Solver-Max-Delh
          0                 1          11            81   45     1      -0.2293412004E+01      81   46    1      -0.6872904467E+05      0.2585139785E+06      0.3961904204E+00     -0.2293412004E+01
          0                 2           9            81   45     1       0.2082733061E+00      81   46    1       0.6864630342E+04      0.2583516246E+05      0.2585139785E+06      0.2082733061E+00
          0                 3           4            27   79     2       0.1487469794E-02      65   45    1       0.1253189245E+02      0.1885283834E+02      0.2583516246E+05      0.1487469794E-02

    ------------------------------------------------
       NWT REQUIRED            3 OUTER ITERATIONS 
       AND A TOTAL OF         24 INNER ITERATIONS.
    ------------------------------------------------

 NO OUTPUT CONTROL FOR STRESS PERIOD   58   TIME STEP    4

 SOLVING FOR HEAD 
                                                   Max.-Head-Change                        Max.-Flux-Residual
  Residual-Control   Outer-Iter.   Inner-Iter.     Column Row Layer    Max.-Head-Change    Column Row Layer    Max.-Flux-Residual            L2-New               L2-Old           Solver-Max-Delh
          0                 1          11            81   45     1      -0.2214787247E+01      81   46    1      -0.6671769109E+05      0.2484258443E+06      0.1885283834E+02     -0.2214787247E+01
          0                 2           9            81   45     1       0.2003826134E+00      89   51    1       0.6718084120E+04      0.2598373026E+05      0.2484258443E+06      0.2003826134E+00
          0                 3           5            14    5     2      -0.3547036575E-02      14    5    2      -0.2306850709E+03      0.2421170492E+03      0.2598373026E+05     -0.3547036575E-02

    ------------------------------------------------
       NWT REQUIRED            3 OUTER ITERATIONS 
       AND A TOTAL OF         25 INNER ITERATIONS.
    ------------------------------------------------

 NO OUTPUT CONTROL FOR STRESS PERIOD   58   TIME STEP    5

 SOLVING FOR HEAD 
                                                   Max.-Head-Change                        Max.-Flux-Residual
  Residual-Control   Outer-Iter.   Inner-Iter.     Column Row Layer    Max.-Head-Change    Column Row Layer    Max.-Flux-Residual            L2-New               L2-Old           Solver-Max-Delh
          0                 1          11            81   45     1      -0.2142549676E+01      81   46    1      -0.6479137684E+05      0.2394260996E+06      0.2421170492E+03     -0.2142549676E+01
          0                 2           9            81   45     1       0.1945894524E+00      81   46    1       0.6471899990E+04      0.2398037605E+05      0.2394260996E+06      0.1945894524E+00
          0                 3           4            50  119     1       0.6380793585E-02      50  119    1       0.1456339638E+03      0.1505815026E+03      0.2398037605E+05      0.6380793585E-02

    ------------------------------------------------
       NWT REQUIRED            3 OUTER ITERATIONS 
       AND A TOTAL OF         24 INNER ITERATIONS.
    ------------------------------------------------

 NO OUTPUT CONTROL FOR STRESS PERIOD   58   TIME STEP    6

 SOLVING FOR HEAD 
                                                   Max.-Head-Change                        Max.-Flux-Residual
  Residual-Control   Outer-Iter.   Inner-Iter.     Column Row Layer    Max.-Head-Change    Column Row Layer    Max.-Flux-Residual            L2-New               L2-Old           Solver-Max-Delh
          0                 1          11            81   45     1      -0.2073058773E+01      81   46    1      -0.6294578912E+05      0.2313370028E+06      0.1505815026E+03     -0.2073058773E+01
          0                 2           9            81   45     1       0.1874585699E+00      81   46    1       0.6287801005E+04      0.2311962393E+05      0.2313370028E+06      0.1874585699E+00
          0                 3           4            27   79     2       0.1499598226E-02      92   68    1       0.1302864686E+01      0.5893782543E+01      0.2311962393E+05      0.1499598226E-02

    ------------------------------------------------
       NWT REQUIRED            3 OUTER ITERATIONS 
       AND A TOTAL OF         24 INNER ITERATIONS.
    ------------------------------------------------

 NO OUTPUT CONTROL FOR STRESS PERIOD   58   TIME STEP    7

 SOLVING FOR HEAD 
                                                   Max.-Head-Change                        Max.-Flux-Residual
  Residual-Control   Outer-Iter.   Inner-Iter.     Column Row Layer    Max.-Head-Change    Column Row Layer    Max.-Flux-Residual            L2-New               L2-Old           Solver-Max-Delh
          0                 1          11            81   45     1      -0.2009553051E+01      81   46    1      -0.6117499890E+05      0.2242048979E+06      0.5893782543E+01     -0.2009553051E+01
          0                 2           9            81   45     1       0.1825827365E+00      81   46    1       0.6088456070E+04      0.2257799900E+05      0.2242048979E+06      0.1825827365E+00
          0                 3           4            27   79     2       0.1497263630E-02      92   68    1       0.1286908844E+01      0.5763494759E+01      0.2257799900E+05      0.1497263630E-02

    ------------------------------------------------
       NWT REQUIRED            3 OUTER ITERATIONS 
       AND A TOTAL OF         24 INNER ITERATIONS.
    ------------------------------------------------

 NO OUTPUT CONTROL FOR STRESS PERIOD   58   TIME STEP    8

 SOLVING FOR HEAD 
                                                   Max.-Head-Change                        Max.-Flux-Residual
  Residual-Control   Outer-Iter.   Inner-Iter.     Column Row Layer    Max.-Head-Change    Column Row Layer    Max.-Flux-Residual            L2-New               L2-Old           Solver-Max-Delh
          0                 1          11            81   45     1      -0.1947945146E+01      81   46    1      -0.5949285158E+05      0.2177749151E+06      0.5763494759E+01     -0.1947945146E+01
          0                 2           9            81   45     1       0.1769936411E+00      81   46    1       0.5944890916E+04      0.2183443505E+05      0.2177749151E+06      0.1769936411E+00
          0                 3           4            57   85     2       0.6522322094E-02      12    8    2      -0.1087437522E+03      0.1347760886E+03      0.2183443505E+05      0.6522322094E-02

    ------------------------------------------------
       NWT REQUIRED            3 OUTER ITERATIONS 
       AND A TOTAL OF         24 INNER ITERATIONS.
    ------------------------------------------------

 NO OUTPUT CONTROL FOR STRESS PERIOD   58   TIME STEP    9

 SOLVING FOR HEAD 
                                                   Max.-Head-Change                        Max.-Flux-Residual
  Residual-Control   Outer-Iter.   Inner-Iter.     Column Row Layer    Max.-Head-Change    Column Row Layer    Max.-Flux-Residual            L2-New               L2-Old           Solver-Max-Delh
          0                 1          11            81   45     1      -0.1889053912E+01      81   46    1      -0.5789783240E+05      0.2118812895E+06      0.1347760886E+03     -0.1889053912E+01
          0                 2           9            53  107     3       0.2118590144E+00      81   46    1       0.5785631439E+04      0.2154030001E+05      0.2118812895E+06      0.2118590144E+00
          0                 3           5            27   79     2       0.1492974539E-02      60   58    1       0.2241051555E+02      0.2313160514E+02      0.2154030001E+05      0.1492974539E-02

    ------------------------------------------------
       NWT REQUIRED            3 OUTER ITERATIONS 
       AND A TOTAL OF         25 INNER ITERATIONS.
    ------------------------------------------------

 NO OUTPUT CONTROL FOR STRESS PERIOD   58   TIME STEP   10

 SOLVING FOR HEAD 
                                                   Max.-Head-Change                        Max.-Flux-Residual
  Residual-Control   Outer-Iter.   Inner-Iter.     Column Row Layer    Max.-Head-Change    Column Row Layer    Max.-Flux-Residual            L2-New               L2-Old           Solver-Max-Delh
          0                 1          11            81   45     1      -0.1832819883E+01      81   46    1      -0.5636161622E+05      0.2064840346E+06      0.2313160514E+02     -0.1832819883E+01
          0                 2           9            81   45     1       0.1665376588E+00      81   46    1       0.5632236399E+04      0.2065884776E+05      0.2064840346E+06      0.1665376588E+00
          0                 3           4            27   79     2       0.1491028307E-02      92   68    1       0.1244892258E+01      0.5687370105E+01      0.2065884776E+05      0.1491028307E-02

    ------------------------------------------------
       NWT REQUIRED            3 OUTER ITERATIONS 
       AND A TOTAL OF         24 INNER ITERATIONS.
    ------------------------------------------------

 NO OUTPUT CONTROL FOR STRESS PERIOD   58   TIME STEP   11

 SOLVING FOR HEAD 
                                                   Max.-Head-Change                        Max.-Flux-Residual
  Residual-Control   Outer-Iter.   Inner-Iter.     Column Row Layer    Max.-Head-Change    Column Row Layer    Max.-Flux-Residual            L2-New               L2-Old           Solver-Max-Delh
          0                 1          11            81   45     1      -0.1779007957E+01      81   46    1      -0.5488156805E+05      0.2016108871E+06      0.5687370105E+01     -0.1779007957E+01
          0                 2           9            81   45     1       0.1616506846E+00      81   46    1       0.5484443574E+04      0.2015891816E+05      0.2016108871E+06      0.1616506846E+00
          0                 3           4            27   79     2       0.1489057184E-02      92   68    1       0.1232505716E+01      0.5790709176E+01      0.2015891816E+05      0.1489057184E-02

    ------------------------------------------------
       NWT REQUIRED            3 OUTER ITERATIONS 
       AND A TOTAL OF         24 INNER ITERATIONS.
    ------------------------------------------------

 OUTPUT CONTROL FOR STRESS PERIOD   58   TIME STEP   12
    SAVE BUDGET
 UBDSV1 SAVING "         STORAGE" ON UNIT  39 AT TIME STEP 12, STRESS PERIOD  58
 UBDSV2 SAVING "   CONSTANT HEAD" ON UNIT  39 AT TIME STEP 12, STRESS PERIOD  58
 UBDSV1 SAVING "FLOW RIGHT FACE " ON UNIT  39 AT TIME STEP 12, STRESS PERIOD  58
 UBDSV1 SAVING "FLOW FRONT FACE " ON UNIT  39 AT TIME STEP 12, STRESS PERIOD  58
 UBDSV1 SAVING "FLOW LOWER FACE " ON UNIT  39 AT TIME STEP 12, STRESS PERIOD  58
 UBDSV3 SAVING "              ET" ON UNIT  39 AT TIME STEP 12, STRESS PERIOD  58
 UBDSV3 SAVING "        RECHARGE" ON UNIT  39 AT TIME STEP 12, STRESS PERIOD  58
1
  VOLUMETRIC BUDGET FOR ENTIRE MODEL AT END OF TIME STEP   12, STRESS PERIOD  58
  ------------------------------------------------------------------------------

     CUMULATIVE VOLUMES      L**3       RATES FOR THIS TIME STEP      L**3/T
     ------------------                 ------------------------

           IN:                                      IN:
           ---                                      ---
             STORAGE = 63421677568.0000               STORAGE =     5355284.5000
       CONSTANT HEAD = 21712144384.0000         CONSTANT HEAD =     1299474.6250
               WELLS =   324179520.0000                 WELLS =           0.0000
                  ET =           0.0000                    ET =           0.0000
            RECHARGE =432599957504.0000              RECHARGE =    14087306.0000

            TOTAL IN =518057951232.0000              TOTAL IN =    20742064.0000

          OUT:                                     OUT:
          ----                                     ----
             STORAGE =138346872832.0000               STORAGE =     2273657.2500
       CONSTANT HEAD =143861514240.0000         CONSTANT HEAD =     7495740.5000
               WELLS =   799479232.0000                 WELLS =       41616.0000
                  ET =235050958848.0000                    ET =    10931078.0000
            RECHARGE =           0.0000              RECHARGE =           0.0000

           TOTAL OUT =518058803200.0000             TOTAL OUT =    20742092.0000

            IN - OUT =     -851968.0000              IN - OUT =         -28.0000

 PERCENT DISCREPANCY =          -0.00     PERCENT DISCREPANCY =          -0.00






         TIME SUMMARY AT END OF TIME STEP   12 IN STRESS PERIOD   58
                    SECONDS     MINUTES      HOURS       DAYS        YEARS
                    -----------------------------------------------------------
   TIME STEP LENGTH 2.62800E+06  43800.      730.00      30.417     8.32763E-02
 STRESS PERIOD TIME 3.15360E+07 5.25600E+05  8760.0      365.00     0.99932    
         TOTAL TIME 1.83038E+09 3.05064E+07 5.08439E+05  21185.      58.001    
1
1
                            STRESS PERIOD NO.   59, LENGTH =   365.0000    
                            -----------------------------------------------

                              NUMBER OF TIME STEPS =    12

                               MULTIPLIER FOR DELT =     1.000

                            INITIAL TIME STEP SIZE =   30.41667    

 WELL NO.  LAYER   ROW   COL   STRESS RATE         
 --------------------------------------------------
      1      1     88     63     -0.4162E+05
      2      1     88     64     -0.4162E+05

      2 WELLS

 REUSING SURF FROM LAST STRESS PERIOD

 REUSING EVTR FROM LAST STRESS PERIOD

 REUSING EXDP FROM LAST STRESS PERIOD



                           RECHARGE
 READING ON UNIT   16 WITH FORMAT: (15F5.0)            


     63 TIME-VARIANT SPECIFIED-HEAD CELLS

 SOLVING FOR HEAD 
                                                   Max.-Head-Change                        Max.-Flux-Residual
  Residual-Control   Outer-Iter.   Inner-Iter.     Column Row Layer    Max.-Head-Change    Column Row Layer    Max.-Flux-Residual            L2-New               L2-Old           Solver-Max-Delh
          0                 1          11            92   77     2       0.1190357132E+03      79   49    1       0.2628239906E+06      0.1271777776E+07      0.5790709176E+01      0.1190357132E+03
          0                 2          10            92   77     2      -0.3390275131E+02      92   77    2      -0.1024118008E+07      0.1035394360E+07      0.1271777776E+07     -0.3390275131E+02
          0                 3           5            91   77     2       0.9978439570E+01      92   77    2      -0.1561726559E+05      0.1899671294E+05      0.1035394360E+07      0.9978439570E+01
          0                 4           3            91   77     2       0.1446065979E+01      91   77    2       0.8337307531E+03      0.1135302084E+04      0.1899671294E+05      0.1446065979E+01
          0                 5           2            91   77     2       0.1997722899E+00      91   77    2       0.1150379532E+03      0.1341984648E+03      0.1135302084E+04      0.1997722899E+00
          0                 6           2            91   77     2       0.2761895553E-01      91   77    2       0.1590283855E+02      0.1707847258E+02      0.1341984648E+03      0.2761895553E-01
          0                 7           2            91   77     2       0.3816603716E-02      91   77    2       0.2197304938E+01      0.2268386907E+01      0.1707847258E+02      0.3816603716E-02

    ------------------------------------------------
       NWT REQUIRED            7 OUTER ITERATIONS 
       AND A TOTAL OF         35 INNER ITERATIONS.
    ------------------------------------------------

 NO OUTPUT CONTROL FOR STRESS PERIOD   59   TIME STEP    1

 SOLVING FOR HEAD 
                                                   Max.-Head-Change                        Max.-Flux-Residual
  Residual-Control   Outer-Iter.   Inner-Iter.     Column Row Layer    Max.-Head-Change    Column Row Layer    Max.-Flux-Residual            L2-New               L2-Old           Solver-Max-Delh
          0                 1          11            92   52     1       0.4878752223E+01      83   51    1       0.1915797983E+06      0.9667811750E+06      0.2268386907E+01      0.4878752223E+01
          0                 2          10            72   15     1      -0.7747288550E+00      87   51    1      -0.2160598246E+05      0.9767904646E+05      0.9667811750E+06     -0.7747288550E+00
          0                 3           5            72   15     1       0.6679273607E-01      72   15    1       0.4049024532E+03      0.5546577664E+03      0.9767904646E+05      0.6679273607E-01
          0                 4           2            27   79     2       0.3775339295E-03      72   15    1       0.1842048615E+01      0.2021965571E+01      0.5546577664E+03      0.3775339295E-03

    ------------------------------------------------
       NWT REQUIRED            4 OUTER ITERATIONS 
       AND A TOTAL OF         28 INNER ITERATIONS.
    ------------------------------------------------

 NO OUTPUT CONTROL FOR STRESS PERIOD   59   TIME STEP    2

 SOLVING FOR HEAD 
                                                   Max.-Head-Change                        Max.-Flux-Residual
  Residual-Control   Outer-Iter.   Inner-Iter.     Column Row Layer    Max.-Head-Change    Column Row Layer    Max.-Flux-Residual            L2-New               L2-Old           Solver-Max-Delh
          0                 1          11            92   52     1       0.4229780411E+01      92   52    1       0.1620613342E+06      0.7939074586E+06      0.2021965571E+01      0.4229780411E+01
          0                 2          10            92   52     1      -0.3906658735E+00      79   50    1      -0.1742957145E+05      0.7998971664E+05      0.7939074586E+06     -0.3906658735E+00
          0                 3           5            91   77     2      -0.6067340562E-02      86   53    2       0.2183234262E+02      0.3883193185E+02      0.7998971664E+05     -0.6067340562E-02

    ------------------------------------------------
       NWT REQUIRED            3 OUTER ITERATIONS 
       AND A TOTAL OF         26 INNER ITERATIONS.
    ------------------------------------------------

 NO OUTPUT CONTROL FOR STRESS PERIOD   59   TIME STEP    3

 SOLVING FOR HEAD 
                                                   Max.-Head-Change                        Max.-Flux-Residual
  Residual-Control   Outer-Iter.   Inner-Iter.     Column Row Layer    Max.-Head-Change    Column Row Layer    Max.-Flux-Residual            L2-New               L2-Old           Solver-Max-Delh
          0                 1          11            89   51     1       0.3942820540E+01      92   52    1       0.1407988745E+06      0.6794431723E+06      0.3883193185E+02      0.3942820540E+01
          0                 2          10            88   51     1      -0.3823412499E+00      88   51    1      -0.1571842895E+05      0.6621195471E+05      0.6794431723E+06     -0.3823412499E+00
          0                 3           5            91   77     2      -0.5649460093E-02      88   52    1      -0.9109280390E+02      0.9652602953E+02      0.6621195471E+05     -0.5649460093E-02

    ------------------------------------------------
       NWT REQUIRED            3 OUTER ITERATIONS 
       AND A TOTAL OF         26 INNER ITERATIONS.
    ------------------------------------------------

 NO OUTPUT CONTROL FOR STRESS PERIOD   59   TIME STEP    4

 SOLVING FOR HEAD 
                                                   Max.-Head-Change                        Max.-Flux-Residual
  Residual-Control   Outer-Iter.   Inner-Iter.     Column Row Layer    Max.-Head-Change    Column Row Layer    Max.-Flux-Residual            L2-New               L2-Old           Solver-Max-Delh
          0                 1          11            92   52     1       0.3682426723E+01      89   51    1       0.1309108007E+06      0.6022589064E+06      0.9652602953E+02      0.3682426723E+01
          0                 2          10            92   52     1      -0.3391971949E+00      89   51    1      -0.1334176951E+05      0.6048282143E+05      0.6022589064E+06     -0.3391971949E+00
          0                 3           5            91   77     2      -0.5259304191E-02      70   48    2      -0.4198612081E+02      0.5291098269E+02      0.6048282143E+05     -0.5259304191E-02

    ------------------------------------------------
       NWT REQUIRED            3 OUTER ITERATIONS 
       AND A TOTAL OF         26 INNER ITERATIONS.
    ------------------------------------------------

 NO OUTPUT CONTROL FOR STRESS PERIOD   59   TIME STEP    5

 SOLVING FOR HEAD 
                                                   Max.-Head-Change                        Max.-Flux-Residual
  Residual-Control   Outer-Iter.   Inner-Iter.     Column Row Layer    Max.-Head-Change    Column Row Layer    Max.-Flux-Residual            L2-New               L2-Old           Solver-Max-Delh
          0                 1          11            92   52     1       0.3458652903E+01      92   52    1       0.1226180367E+06      0.5453371829E+06      0.5291098269E+02      0.3458652903E+01
          0                 2          10            92   52     1      -0.3195589854E+00      92   52    1      -0.1244644881E+05      0.5462207621E+05      0.5453371829E+06     -0.3195589854E+00
          0                 3           5            15    1     2       0.3122667906E-01      15    1    2       0.1970501559E+04      0.2002153221E+04      0.5462207621E+05      0.3122667906E-01
          0                 4           4            15    1     2       0.2810450346E-02      15    1    2       0.1773252974E+03      0.1792658840E+03      0.2002153221E+04      0.2810450346E-02

    ------------------------------------------------
       NWT REQUIRED            4 OUTER ITERATIONS 
       AND A TOTAL OF         30 INNER ITERATIONS.
    ------------------------------------------------

 NO OUTPUT CONTROL FOR STRESS PERIOD   59   TIME STEP    6

 SOLVING FOR HEAD 
                                                   Max.-Head-Change                        Max.-Flux-Residual
  Residual-Control   Outer-Iter.   Inner-Iter.     Column Row Layer    Max.-Head-Change    Column Row Layer    Max.-Flux-Residual            L2-New               L2-Old           Solver-Max-Delh
          0                 1          11            92   52     1       0.3247842399E+01      92   52    1       0.1151336539E+06      0.5019005269E+06      0.1792658840E+03      0.3247842399E+01
          0                 2          10            92   52     1      -0.2982909982E+00      70   47    1      -0.1182754641E+05      0.5044391374E+05      0.5019005269E+06     -0.2982909982E+00
          0                 3           5            77   48     1      -0.6491345375E-02      77   48    1      -0.3100676263E+03      0.3971990463E+03      0.5044391374E+05     -0.6491345375E-02

    ------------------------------------------------
       NWT REQUIRED            3 OUTER ITERATIONS 
       AND A TOTAL OF         26 INNER ITERATIONS.
    ------------------------------------------------

 NO OUTPUT CONTROL FOR STRESS PERIOD   59   TIME STEP    7

 SOLVING FOR HEAD 
                                                   Max.-Head-Change                        Max.-Flux-Residual
  Residual-Control   Outer-Iter.   Inner-Iter.     Column Row Layer    Max.-Head-Change    Column Row Layer    Max.-Flux-Residual            L2-New               L2-Old           Solver-Max-Delh
          0                 1          11            92   52     1       0.3054280214E+01      92   52    1       0.1081837544E+06      0.4682774817E+06      0.3971990463E+03      0.3054280214E+01
          0                 2          10            92   52     1      -0.2801753796E+00      92   52    1      -0.1094723758E+05      0.4698920197E+05      0.4682774817E+06     -0.2801753796E+00
          0                 3           5            91   77     2      -0.4271986934E-02      91   77    2      -0.2653936919E+01      0.8463737391E+01      0.4698920197E+05     -0.4271986934E-02

    ------------------------------------------------
       NWT REQUIRED            3 OUTER ITERATIONS 
       AND A TOTAL OF         26 INNER ITERATIONS.
    ------------------------------------------------

 NO OUTPUT CONTROL FOR STRESS PERIOD   59   TIME STEP    8

 SOLVING FOR HEAD 
                                                   Max.-Head-Change                        Max.-Flux-Residual
  Residual-Control   Outer-Iter.   Inner-Iter.     Column Row Layer    Max.-Head-Change    Column Row Layer    Max.-Flux-Residual            L2-New               L2-Old           Solver-Max-Delh
          0                 1          11            92   52     1       0.2875574098E+01      92   52    1       0.1017506173E+06      0.4411980247E+06      0.8463737391E+01      0.2875574098E+01
          0                 2          10            86   63     2       0.1714010486E+01      92   52    1      -0.1028229434E+05      0.4463674750E+05      0.4411980247E+06      0.1714010486E+01
          0                 3           5            86   63     2      -0.1558096339E+00      86   63    2      -0.5790173988E+03      0.6121213394E+03      0.4463674750E+05     -0.1558096339E+00
          0                 4           2            27   79     2       0.3815201481E-03      91   77    3       0.8806394432E+00      0.9397488474E+00      0.6121213394E+03      0.3815201481E-03

    ------------------------------------------------
       NWT REQUIRED            4 OUTER ITERATIONS 
       AND A TOTAL OF         28 INNER ITERATIONS.
    ------------------------------------------------

 NO OUTPUT CONTROL FOR STRESS PERIOD   59   TIME STEP    9

 SOLVING FOR HEAD 
                                                   Max.-Head-Change                        Max.-Flux-Residual
  Residual-Control   Outer-Iter.   Inner-Iter.     Column Row Layer    Max.-Head-Change    Column Row Layer    Max.-Flux-Residual            L2-New               L2-Old           Solver-Max-Delh
          0                 1          11            92   52     1       0.2710812434E+01      92   52    1       0.9580915814E+05      0.4186331700E+06      0.9397488474E+00      0.2710812434E+01
          0                 2          10            92   52     1      -0.2481708160E+00      92   52    1      -0.9670276504E+04      0.4190005504E+05      0.4186331700E+06     -0.2481708160E+00
          0                 3           5            81   55     1       0.4022565803E-02      75   48    1      -0.1095814630E+03      0.1273515866E+03      0.4190005504E+05      0.4022565803E-02

    ------------------------------------------------
       NWT REQUIRED            3 OUTER ITERATIONS 
       AND A TOTAL OF         26 INNER ITERATIONS.
    ------------------------------------------------

 NO OUTPUT CONTROL FOR STRESS PERIOD   59   TIME STEP   10

 SOLVING FOR HEAD 
                                                   Max.-Head-Change                        Max.-Flux-Residual
  Residual-Control   Outer-Iter.   Inner-Iter.     Column Row Layer    Max.-Head-Change    Column Row Layer    Max.-Flux-Residual            L2-New               L2-Old           Solver-Max-Delh
          0                 1          11            92   52     1       0.2559010051E+01      92   52    1       0.9032960146E+05      0.3997307257E+06      0.1273515866E+03      0.2559010051E+01
          0                 2          10            92   52     1      -0.2340237012E+00      92   52    1      -0.9107570135E+04      0.3990313200E+05      0.3997307257E+06     -0.2340237012E+00
          0                 3           5            81   53     2      -0.1802019468E-01      81   53    2      -0.2013259568E+03      0.2321358124E+03      0.3990313200E+05     -0.1802019468E-01
          0                 4           1            27   79     2       0.3809037949E-03      58   91    2       0.1278190017E+00      0.2062384082E+00      0.2321358124E+03      0.3809037949E-03

    ------------------------------------------------
       NWT REQUIRED            4 OUTER ITERATIONS 
       AND A TOTAL OF         27 INNER ITERATIONS.
    ------------------------------------------------

 NO OUTPUT CONTROL FOR STRESS PERIOD   59   TIME STEP   11

 SOLVING FOR HEAD 
                                                   Max.-Head-Change                        Max.-Flux-Residual
  Residual-Control   Outer-Iter.   Inner-Iter.     Column Row Layer    Max.-Head-Change    Column Row Layer    Max.-Flux-Residual            L2-New               L2-Old           Solver-Max-Delh
          0                 1          11            92   52     1       0.2419599860E+01      92   52    1       0.8528172135E+05      0.3835800960E+06      0.2062384082E+00      0.2419599860E+01
          0                 2           9            92   52     1      -0.2211624154E+00      92   52    1      -0.8590422112E+04      0.3843720351E+05      0.3835800960E+06     -0.2211624154E+00
          0                 3           5            91   77     2      -0.2443255226E-02      87   67    1      -0.1949110199E+01      0.7521516331E+01      0.3843720351E+05     -0.2443255226E-02

    ------------------------------------------------
       NWT REQUIRED            3 OUTER ITERATIONS 
       AND A TOTAL OF         25 INNER ITERATIONS.
    ------------------------------------------------

 OUTPUT CONTROL FOR STRESS PERIOD   59   TIME STEP   12
    SAVE BUDGET
 UBDSV1 SAVING "         STORAGE" ON UNIT  39 AT TIME STEP 12, STRESS PERIOD  59
 UBDSV2 SAVING "   CONSTANT HEAD" ON UNIT  39 AT TIME STEP 12, STRESS PERIOD  59
 UBDSV1 SAVING "FLOW RIGHT FACE " ON UNIT  39 AT TIME STEP 12, STRESS PERIOD  59
 UBDSV1 SAVING "FLOW FRONT FACE " ON UNIT  39 AT TIME STEP 12, STRESS PERIOD  59
 UBDSV1 SAVING "FLOW LOWER FACE " ON UNIT  39 AT TIME STEP 12, STRESS PERIOD  59
 UBDSV3 SAVING "              ET" ON UNIT  39 AT TIME STEP 12, STRESS PERIOD  59
 UBDSV3 SAVING "        RECHARGE" ON UNIT  39 AT TIME STEP 12, STRESS PERIOD  59
1
  VOLUMETRIC BUDGET FOR ENTIRE MODEL AT END OF TIME STEP   12, STRESS PERIOD  59
  ------------------------------------------------------------------------------

     CUMULATIVE VOLUMES      L**3       RATES FOR THIS TIME STEP      L**3/T
     ------------------                 ------------------------

           IN:                                      IN:
           ---                                      ---
             STORAGE = 64297422848.0000               STORAGE =     1909275.6250
       CONSTANT HEAD = 22170429440.0000         CONSTANT HEAD =     1224763.1250
               WELLS =   324179520.0000                 WELLS =           0.0000
                  ET =           0.0000                    ET =           0.0000
            RECHARGE =442382778368.0000              RECHARGE =    26801958.0000

            TOTAL IN =529174822912.0000              TOTAL IN =    29935996.0000

          OUT:                                     OUT:
          ----                                     ----
             STORAGE =141849395200.0000               STORAGE =     8264673.5000
       CONSTANT HEAD =146569691136.0000         CONSTANT HEAD =     7370382.0000
               WELLS =   829859008.0000                 WELLS =       83232.0000
                  ET =239926673408.0000                    ET =    14217735.0000
            RECHARGE =           0.0000              RECHARGE =           0.0000

           TOTAL OUT =529175609344.0000             TOTAL OUT =    29936024.0000

            IN - OUT =     -786432.0000              IN - OUT =         -28.0000

 PERCENT DISCREPANCY =          -0.00     PERCENT DISCREPANCY =          -0.00






         TIME SUMMARY AT END OF TIME STEP   12 IN STRESS PERIOD   59
                    SECONDS     MINUTES      HOURS       DAYS        YEARS
                    -----------------------------------------------------------
   TIME STEP LENGTH 2.62800E+06  43800.      730.00      30.417     8.32763E-02
 STRESS PERIOD TIME 3.15360E+07 5.25600E+05  8760.0      365.00     0.99932    
         TOTAL TIME 1.86192E+09 3.10320E+07 5.17199E+05  21550.      59.001    
1
1
                            STRESS PERIOD NO.   60, LENGTH =   365.0000    
                            -----------------------------------------------

                              NUMBER OF TIME STEPS =    12

                               MULTIPLIER FOR DELT =     1.000

                            INITIAL TIME STEP SIZE =   30.41667    

 WELL NO.  LAYER   ROW   COL   STRESS RATE         
 --------------------------------------------------
      1      2     89     65     -0.8323E+05

      1 WELL 

 REUSING SURF FROM LAST STRESS PERIOD

 REUSING EVTR FROM LAST STRESS PERIOD

 REUSING EXDP FROM LAST STRESS PERIOD



                           RECHARGE
 READING ON UNIT   16 WITH FORMAT: (15F5.0)            


     63 TIME-VARIANT SPECIFIED-HEAD CELLS

 SOLVING FOR HEAD 
                                                   Max.-Head-Change                        Max.-Flux-Residual
  Residual-Control   Outer-Iter.   Inner-Iter.     Column Row Layer    Max.-Head-Change    Column Row Layer    Max.-Flux-Residual            L2-New               L2-Old           Solver-Max-Delh
          0                 1          11            13   85     1       0.2407654490E+02      83   51    1      -0.2152787882E+06      0.1006652193E+07      0.7521516331E+01      0.2407654490E+02
          0                 2          10            85   52     1       0.8956486610E+00      85   52    1       0.4842187141E+05      0.1118078196E+06      0.1006652193E+07      0.8956486610E+00
          0                 3           6            13   85     1      -0.3093911874E-01      79   49    1      -0.2281243570E+03      0.4382862121E+03      0.1118078196E+06     -0.3093911874E-01
          0                 4           3            13   85     1      -0.2365855871E-02      79   49    1      -0.2053190492E+02      0.2912340577E+02      0.4382862121E+03     -0.2365855871E-02

    ------------------------------------------------
       NWT REQUIRED            4 OUTER ITERATIONS 
       AND A TOTAL OF         30 INNER ITERATIONS.
    ------------------------------------------------

 NO OUTPUT CONTROL FOR STRESS PERIOD   60   TIME STEP    1

 SOLVING FOR HEAD 
                                                   Max.-Head-Change                        Max.-Flux-Residual
  Residual-Control   Outer-Iter.   Inner-Iter.     Column Row Layer    Max.-Head-Change    Column Row Layer    Max.-Flux-Residual            L2-New               L2-Old           Solver-Max-Delh
          0                 1          11            77   48     1      -0.3754991550E+01      79   49    1      -0.1631245743E+06      0.7358245458E+06      0.2912340577E+02     -0.3754991550E+01
          0                 2          10            91   77     2       0.7556738096E+00      77   48    1       0.2033401537E+05      0.7471215250E+05      0.7358245458E+06      0.7556738096E+00
          0                 3           5            91   77     2       0.3167324587E-01      17   76    3      -0.1373272496E+03      0.1970225839E+03      0.7471215250E+05      0.3167324587E-01
          0                 4           2            91   77     2       0.1354843310E-02      17   75    3       0.1184895888E+02      0.1199728988E+02      0.1970225839E+03      0.1354843310E-02

    ------------------------------------------------
       NWT REQUIRED            4 OUTER ITERATIONS 
       AND A TOTAL OF         28 INNER ITERATIONS.
    ------------------------------------------------

 NO OUTPUT CONTROL FOR STRESS PERIOD   60   TIME STEP    2

 SOLVING FOR HEAD 
                                                   Max.-Head-Change                        Max.-Flux-Residual
  Residual-Control   Outer-Iter.   Inner-Iter.     Column Row Layer    Max.-Head-Change    Column Row Layer    Max.-Flux-Residual            L2-New               L2-Old           Solver-Max-Delh
          0                 1          11            77   48     1      -0.2923881828E+01      77   48    1      -0.1391209211E+06      0.5983765218E+06      0.1199728988E+02     -0.2923881828E+01
          0                 2          10            79   49     1       0.4118853522E+00      79   49    1       0.2463518533E+05      0.6289034106E+05      0.5983765218E+06      0.4118853522E+00
          0                 3           5            80   63     2       0.3090333076E-02      80   63    2       0.1351853560E+03      0.1828477272E+03      0.6289034106E+05      0.3090333076E-02

    ------------------------------------------------
       NWT REQUIRED            3 OUTER ITERATIONS 
       AND A TOTAL OF         26 INNER ITERATIONS.
    ------------------------------------------------

 NO OUTPUT CONTROL FOR STRESS PERIOD   60   TIME STEP    3

 SOLVING FOR HEAD 
                                                   Max.-Head-Change                        Max.-Flux-Residual
  Residual-Control   Outer-Iter.   Inner-Iter.     Column Row Layer    Max.-Head-Change    Column Row Layer    Max.-Flux-Residual            L2-New               L2-Old           Solver-Max-Delh
          0                 1          11            88   51     1      -0.2516492562E+01      77   48    1      -0.1098117814E+06      0.5033724216E+06      0.1828477272E+03     -0.2516492562E+01
          0                 2          10            88   51     1       0.2256379408E+00      77   48    1       0.1092335810E+05      0.4985667280E+05      0.5033724216E+06      0.2256379408E+00
          0                 3           5            74   48     1       0.9489648154E-02      74   48    1       0.4461519377E+03      0.4631546880E+03      0.4985667280E+05      0.9489648154E-02

    ------------------------------------------------
       NWT REQUIRED            3 OUTER ITERATIONS 
       AND A TOTAL OF         26 INNER ITERATIONS.
    ------------------------------------------------

 NO OUTPUT CONTROL FOR STRESS PERIOD   60   TIME STEP    4

 SOLVING FOR HEAD 
                                                   Max.-Head-Change                        Max.-Flux-Residual
  Residual-Control   Outer-Iter.   Inner-Iter.     Column Row Layer    Max.-Head-Change    Column Row Layer    Max.-Flux-Residual            L2-New               L2-Old           Solver-Max-Delh
          0                 1          11            92   52     1      -0.2325474075E+01      77   48    1      -0.8709912663E+05      0.4367730681E+06      0.4631546880E+03     -0.2325474075E+01
          0                 2          10            92   68     1      -0.3526019531E+01      74   48    1       0.1663055625E+05      0.4765823648E+05      0.4367730681E+06     -0.3526019531E+01
          0                 3           7            92   68     1       0.2815890104E+00      92   68    1       0.9910688852E+03      0.1122833171E+04      0.4765823648E+05      0.2815890104E+00
          0                 4           5            92   68     1       0.3122653946E-02      37   20    2       0.4653823014E+02      0.4847784817E+02      0.1122833171E+04      0.3122653946E-02

    ------------------------------------------------
       NWT REQUIRED            4 OUTER ITERATIONS 
       AND A TOTAL OF         33 INNER ITERATIONS.
    ------------------------------------------------

 NO OUTPUT CONTROL FOR STRESS PERIOD   60   TIME STEP    5

 SOLVING FOR HEAD 
                                                   Max.-Head-Change                        Max.-Flux-Residual
  Residual-Control   Outer-Iter.   Inner-Iter.     Column Row Layer    Max.-Head-Change    Column Row Layer    Max.-Flux-Residual            L2-New               L2-Old           Solver-Max-Delh
          0                 1          11            92   52     1      -0.2168350937E+01      92   52    1      -0.7761477028E+05      0.3874859303E+06      0.4847784817E+02     -0.2168350937E+01
          0                 2          10            92   52     1       0.1954692959E+00      92   52    1       0.7678114359E+04      0.3900633565E+05      0.3874859303E+06      0.1954692959E+00
          0                 3           6            37   20     2      -0.1276385368E-01      37   20    2      -0.1659328528E+03      0.2386143704E+03      0.3900633565E+05     -0.1276385368E-01
          0                 4           2            27   79     2       0.3749489901E-03      87   51    1      -0.8931542933E-01      0.2224077869E+00      0.2386143704E+03      0.3749489901E-03

    ------------------------------------------------
       NWT REQUIRED            4 OUTER ITERATIONS 
       AND A TOTAL OF         29 INNER ITERATIONS.
    ------------------------------------------------

 NO OUTPUT CONTROL FOR STRESS PERIOD   60   TIME STEP    6

 SOLVING FOR HEAD 
                                                   Max.-Head-Change                        Max.-Flux-Residual
  Residual-Control   Outer-Iter.   Inner-Iter.     Column Row Layer    Max.-Head-Change    Column Row Layer    Max.-Flux-Residual            L2-New               L2-Old           Solver-Max-Delh
          0                 1          11            92   52     1      -0.2031885829E+01      92   52    1      -0.7236182509E+05      0.3507697627E+06      0.2224077869E+00     -0.2031885829E+01
          0                 2          10            92   52     1       0.1833493724E+00      92   52    1       0.7167015695E+04      0.3489926218E+05      0.3507697627E+06      0.1833493724E+00
          0                 3           5            91   77     2       0.2291671727E-02      28   59    3       0.6793632433E+01      0.1642224431E+02      0.3489926218E+05      0.2291671727E-02

    ------------------------------------------------
       NWT REQUIRED            3 OUTER ITERATIONS 
       AND A TOTAL OF         26 INNER ITERATIONS.
    ------------------------------------------------

 NO OUTPUT CONTROL FOR STRESS PERIOD   60   TIME STEP    7

 SOLVING FOR HEAD 
                                                   Max.-Head-Change                        Max.-Flux-Residual
  Residual-Control   Outer-Iter.   Inner-Iter.     Column Row Layer    Max.-Head-Change    Column Row Layer    Max.-Flux-Residual            L2-New               L2-Old           Solver-Max-Delh
          0                 1          11            92   52     1      -0.1912468368E+01      92   52    1      -0.6780022315E+05      0.3231531019E+06      0.1642224431E+02     -0.1912468368E+01
          0                 2          10            92   52     1       0.1727116067E+00      92   52    1       0.6722000651E+04      0.3218931126E+05      0.3231531019E+06      0.1727116067E+00
          0                 3           5            91   77     2       0.2194454187E-02      30   52    1      -0.1745954931E+01      0.1231646638E+02      0.3218931126E+05      0.2194454187E-02

    ------------------------------------------------
       NWT REQUIRED            3 OUTER ITERATIONS 
       AND A TOTAL OF         26 INNER ITERATIONS.
    ------------------------------------------------

 NO OUTPUT CONTROL FOR STRESS PERIOD   60   TIME STEP    8

 SOLVING FOR HEAD 
                                                   Max.-Head-Change                        Max.-Flux-Residual
  Residual-Control   Outer-Iter.   Inner-Iter.     Column Row Layer    Max.-Head-Change    Column Row Layer    Max.-Flux-Residual            L2-New               L2-Old           Solver-Max-Delh
          0                 1          11            92   52     1      -0.1807224591E+01      92   52    1      -0.6380968016E+05      0.3019368736E+06      0.1231646638E+02     -0.1807224591E+01
          0                 2          10            87   51     1       0.2134940916E+00      87   51    1       0.9694879982E+04      0.3123976209E+05      0.3019368736E+06      0.2134940916E+00
          0                 3           5            77   45     2       0.1325530684E-01      77   45    2       0.3360878811E+02      0.5234850402E+02      0.3123976209E+05      0.1325530684E-01
          0                 4           2            27   79     2       0.3795108002E-03      69   47    1      -0.2163964540E+01      0.2193886992E+01      0.5234850402E+02      0.3795108002E-03

    ------------------------------------------------
       NWT REQUIRED            4 OUTER ITERATIONS 
       AND A TOTAL OF         28 INNER ITERATIONS.
    ------------------------------------------------

 NO OUTPUT CONTROL FOR STRESS PERIOD   60   TIME STEP    9

 SOLVING FOR HEAD 
                                                   Max.-Head-Change                        Max.-Flux-Residual
  Residual-Control   Outer-Iter.   Inner-Iter.     Column Row Layer    Max.-Head-Change    Column Row Layer    Max.-Flux-Residual            L2-New               L2-Old           Solver-Max-Delh
          0                 1          11            92   52     1      -0.1713819571E+01      92   52    1      -0.6029348213E+05      0.2847400193E+06      0.2193886992E+01     -0.1713819571E+01
          0                 2          10            77   45     2       0.2700738217E+00      77   45    2       0.8681607762E+04      0.2970223992E+05      0.2847400193E+06      0.2700738217E+00
          0                 3           5            91   77     2       0.2022915036E-02      33   51    2      -0.1426552489E+01      0.1175799096E+02      0.2970223992E+05      0.2022915036E-02

    ------------------------------------------------
       NWT REQUIRED            3 OUTER ITERATIONS 
       AND A TOTAL OF         26 INNER ITERATIONS.
    ------------------------------------------------

 NO OUTPUT CONTROL FOR STRESS PERIOD   60   TIME STEP   10

 SOLVING FOR HEAD 
                                                   Max.-Head-Change                        Max.-Flux-Residual
  Residual-Control   Outer-Iter.   Inner-Iter.     Column Row Layer    Max.-Head-Change    Column Row Layer    Max.-Flux-Residual            L2-New               L2-Old           Solver-Max-Delh
          0                 1          11            92   52     1      -0.1630360573E+01      92   52    1      -0.5717348143E+05      0.2709037790E+06      0.1175799096E+02     -0.1630360573E+01
          0                 2          10            92   52     1       0.1474804116E+00      92   52    1       0.5680927055E+04      0.2710056481E+05      0.2709037790E+06      0.1474804116E+00
          0                 3           5            90   51     1       0.6873602614E-02      90   51    1       0.2892766984E+03      0.2895102656E+03      0.2710056481E+05      0.6873602614E-02

    ------------------------------------------------
       NWT REQUIRED            3 OUTER ITERATIONS 
       AND A TOTAL OF         26 INNER ITERATIONS.
    ------------------------------------------------

 NO OUTPUT CONTROL FOR STRESS PERIOD   60   TIME STEP   11

 INTERPOLATION FOR HEAD OBS# 3697, ID 1479-60-363  CHANGED BECAUSE AT LEAST ONE
 NEIGHBORING CELL REQUIRED FOR INTERPOLATION IS DRY OR INACTIVE (OBS2BAS7SE)

 SOLVING FOR HEAD 
                                                   Max.-Head-Change                        Max.-Flux-Residual
  Residual-Control   Outer-Iter.   Inner-Iter.     Column Row Layer    Max.-Head-Change    Column Row Layer    Max.-Flux-Residual            L2-New               L2-Old           Solver-Max-Delh
          0                 1          11            92   52     1      -0.1555298404E+01      92   52    1      -0.5438612245E+05      0.2596390638E+06      0.2895102656E+03     -0.1555298404E+01
          0                 2          10            92   77     2       0.2325695932E+01      90   51    1       0.6733979461E+04      0.2685869867E+05      0.2596390638E+06      0.2325695932E+01
          1                 2           0            92   77     2       0.2093126283E+01      92   77    2      -0.6551579957E+05      0.6554582833E+05      0.2685869867E+05      0.2325695932E+01
          2                 2           0            92   77     2       0.1883813605E+01      92   77    2      -0.5876121455E+05      0.5885014558E+05      0.6554582833E+05      0.2325695932E+01
          0                 3           9            92   77     2      -0.1651355073E+01      92   77    2      -0.5268357818E+05      0.5295537350E+05      0.5885014558E+05     -0.1651355073E+01
          0                 4           4            92   77     2      -0.1502981461E+00      92   77    2      -0.4786517585E+04      0.4789982311E+04      0.5295537350E+05     -0.1502981461E+00
          0                 5           2            92   77     2      -0.1352875988E-01      92   77    2      -0.4307215900E+03      0.4311038206E+03      0.4789982311E+04     -0.1352875988E-01
          0                 6           2            91   77     2       0.1588340479E-02      92   77    2      -0.3868285146E+02      0.3874982897E+02      0.4311038206E+03      0.1588340479E-02

    ------------------------------------------------
       NWT REQUIRED            6 OUTER ITERATIONS 
       AND A TOTAL OF         38 INNER ITERATIONS.
    ------------------------------------------------

 OUTPUT CONTROL FOR STRESS PERIOD   60   TIME STEP   12
    SAVE BUDGET
    SAVE HEAD FOR LAYERS:   1  2  3
 UBDSV1 SAVING "         STORAGE" ON UNIT  39 AT TIME STEP 12, STRESS PERIOD  60
 UBDSV2 SAVING "   CONSTANT HEAD" ON UNIT  39 AT TIME STEP 12, STRESS PERIOD  60
 UBDSV1 SAVING "FLOW RIGHT FACE " ON UNIT  39 AT TIME STEP 12, STRESS PERIOD  60
 UBDSV1 SAVING "FLOW FRONT FACE " ON UNIT  39 AT TIME STEP 12, STRESS PERIOD  60
 UBDSV1 SAVING "FLOW LOWER FACE " ON UNIT  39 AT TIME STEP 12, STRESS PERIOD  60
 UBDSV3 SAVING "              ET" ON UNIT  39 AT TIME STEP 12, STRESS PERIOD  60
 UBDSV3 SAVING "        RECHARGE" ON UNIT  39 AT TIME STEP 12, STRESS PERIOD  60

 INTERPOLATION FOR HEAD OBS# 1657, ID 2303-61-4    CHANGED BECAUSE AT LEAST ONE
 NEIGHBORING CELL REQUIRED FOR INTERPOLATION IS DRY OR INACTIVE (OBS2BAS7SE)

 INTERPOLATION FOR HEAD OBS# 5427, ID 846-61-25    CHANGED BECAUSE AT LEAST ONE
 NEIGHBORING CELL REQUIRED FOR INTERPOLATION IS DRY OR INACTIVE (OBS2BAS7SE)

 HEAD WILL BE SAVED ON UNIT   31 AT END OF TIME STEP   12, STRESS PERIOD   60
1
  VOLUMETRIC BUDGET FOR ENTIRE MODEL AT END OF TIME STEP   12, STRESS PERIOD  60
  ------------------------------------------------------------------------------

     CUMULATIVE VOLUMES      L**3       RATES FOR THIS TIME STEP      L**3/T
     ------------------                 ------------------------

           IN:                                      IN:
           ---                                      ---
             STORAGE = 66087907328.0000               STORAGE =     3671406.2500
       CONSTANT HEAD = 22621333504.0000         CONSTANT HEAD =     1233433.2500
               WELLS =   324179520.0000                 WELLS =           0.0000
                  ET =           0.0000                    ET =           0.0000
            RECHARGE =449675362304.0000              RECHARGE =    19979862.0000

            TOTAL IN =538708803584.0000              TOTAL IN =    24884702.0000

          OUT:                                     OUT:
          ----                                     ----
             STORAGE =144020160512.0000               STORAGE =     5453988.5000
       CONSTANT HEAD =149233745920.0000         CONSTANT HEAD =     7254809.0000
               WELLS =   860238784.0000                 WELLS =       83232.0000
                  ET =244595523584.0000                    ET =    12092700.0000
            RECHARGE =           0.0000              RECHARGE =           0.0000

           TOTAL OUT =538709655552.0000             TOTAL OUT =    24884730.0000

            IN - OUT =     -851968.0000              IN - OUT =         -28.0000

 PERCENT DISCREPANCY =          -0.00     PERCENT DISCREPANCY =          -0.00






         TIME SUMMARY AT END OF TIME STEP   12 IN STRESS PERIOD   60
                    SECONDS     MINUTES      HOURS       DAYS        YEARS
                    -----------------------------------------------------------
   TIME STEP LENGTH 2.62800E+06  43800.      730.00      30.417     8.32763E-02
 STRESS PERIOD TIME 3.15360E+07 5.25600E+05  8760.0      365.00     0.99932    
         TOTAL TIME 1.89345E+09 3.15575E+07 5.25959E+05  21915.      60.000    
1
1
                            STRESS PERIOD NO.   61, LENGTH =   366.0000    
                            -----------------------------------------------

                              NUMBER OF TIME STEPS =    12

                               MULTIPLIER FOR DELT =     1.000

                            INITIAL TIME STEP SIZE =   30.50000    

 WELL NO.  LAYER   ROW   COL   STRESS RATE         
 --------------------------------------------------
      1      2     90     63     -0.4627E+05

      1 WELL 

 REUSING SURF FROM LAST STRESS PERIOD

 REUSING EVTR FROM LAST STRESS PERIOD

 REUSING EXDP FROM LAST STRESS PERIOD



                           RECHARGE
 READING ON UNIT   16 WITH FORMAT: (15F5.0)            


     63 TIME-VARIANT SPECIFIED-HEAD CELLS

 SOLVING FOR HEAD 
                                                   Max.-Head-Change                        Max.-Flux-Residual
  Residual-Control   Outer-Iter.   Inner-Iter.     Column Row Layer    Max.-Head-Change    Column Row Layer    Max.-Flux-Residual            L2-New               L2-Old           Solver-Max-Delh
          0                 1          11            65    2     2       0.9183466919E+02      33   26    1       0.1942979163E+06      0.9115237162E+06      0.3874982897E+02      0.9183466919E+02
          0                 2          10            65    5     2      -0.2601336022E+02      65    5    2      -0.6915101609E+06      0.1224605919E+07      0.9115237162E+06     -0.2601336022E+02
          0                 3           6            66    5     2       0.3646583718E+01      65    5    2      -0.7808646356E+04      0.1113478034E+05      0.1224605919E+07      0.3646583718E+01
          0                 4           4            66    5     2       0.5520899218E+00      65    4    2       0.4121977902E+03      0.6196223993E+03      0.1113478034E+05      0.5520899218E+00
          0                 5           3            66    5     2       0.8218094836E-01      65    4    2       0.3705217810E+02      0.6753592244E+02      0.6196223993E+03      0.8218094836E-01
          0                 6           2            66    5     2       0.1222517094E-01      66    5    2       0.5212137629E+01      0.8088579827E+01      0.6753592244E+02      0.1222517094E-01
          0                 7           2            66    5     2       0.1817446783E-02      66    5    2       0.7747931394E+00      0.1053355356E+01      0.8088579827E+01      0.1817446783E-02

    ------------------------------------------------
       NWT REQUIRED            7 OUTER ITERATIONS 
       AND A TOTAL OF         38 INNER ITERATIONS.
    ------------------------------------------------

 NO OUTPUT CONTROL FOR STRESS PERIOD   61   TIME STEP    1

 INTERPOLATION FOR HEAD OBS#  638, ID 3014-61-59   CHANGED BECAUSE AT LEAST ONE
 NEIGHBORING CELL REQUIRED FOR INTERPOLATION IS DRY OR INACTIVE (OBS2BAS7SE)

 INTERPOLATION FOR HEAD OBS# 1403, ID 2840-61-56   CHANGED BECAUSE AT LEAST ONE
 NEIGHBORING CELL REQUIRED FOR INTERPOLATION IS DRY OR INACTIVE (OBS2BAS7SE)

 INTERPOLATION FOR HEAD OBS# 1742, ID 2618-61-53   CHANGED BECAUSE AT LEAST ONE
 NEIGHBORING CELL REQUIRED FOR INTERPOLATION IS DRY OR INACTIVE (OBS2BAS7SE)

 INTERPOLATION FOR HEAD OBS# 1854, ID 2604-61-55   CHANGED BECAUSE AT LEAST ONE
 NEIGHBORING CELL REQUIRED FOR INTERPOLATION IS DRY OR INACTIVE (OBS2BAS7SE)

 INTERPOLATION FOR HEAD OBS# 1868, ID 2606-61-55   CHANGED BECAUSE AT LEAST ONE
 NEIGHBORING CELL REQUIRED FOR INTERPOLATION IS DRY OR INACTIVE (OBS2BAS7SE)

 INTERPOLATION FOR HEAD OBS# 2183, ID 2355-61-40   CHANGED BECAUSE AT LEAST ONE
 NEIGHBORING CELL REQUIRED FOR INTERPOLATION IS DRY OR INACTIVE (OBS2BAS7SE)

 INTERPOLATION FOR HEAD OBS# 3195, ID 2443-61-54   CHANGED BECAUSE AT LEAST ONE
 NEIGHBORING CELL REQUIRED FOR INTERPOLATION IS DRY OR INACTIVE (OBS2BAS7SE)

 INTERPOLATION FOR HEAD OBS# 3221, ID 2189-61-55   CHANGED BECAUSE AT LEAST ONE
 NEIGHBORING CELL REQUIRED FOR INTERPOLATION IS DRY OR INACTIVE (OBS2BAS7SE)

 INTERPOLATION FOR HEAD OBS# 5398, ID 1705-61-60   CHANGED BECAUSE AT LEAST ONE
 NEIGHBORING CELL REQUIRED FOR INTERPOLATION IS DRY OR INACTIVE (OBS2BAS7SE)

 INTERPOLATION FOR HEAD OBS# 5402, ID 1530-61-60   CHANGED BECAUSE AT LEAST ONE
 NEIGHBORING CELL REQUIRED FOR INTERPOLATION IS DRY OR INACTIVE (OBS2BAS7SE)

 INTERPOLATION FOR HEAD OBS# 6241, ID 1164-61-60   CHANGED BECAUSE AT LEAST ONE
 NEIGHBORING CELL REQUIRED FOR INTERPOLATION IS DRY OR INACTIVE (OBS2BAS7SE)

 INTERPOLATION FOR HEAD OBS# 7375, ID 451-61-52    CHANGED BECAUSE AT LEAST ONE
 NEIGHBORING CELL REQUIRED FOR INTERPOLATION IS DRY OR INACTIVE (OBS2BAS7SE)

 INTERPOLATION FOR HEAD OBS# 7528, ID 269-61-61    CHANGED BECAUSE AT LEAST ONE
 NEIGHBORING CELL REQUIRED FOR INTERPOLATION IS DRY OR INACTIVE (OBS2BAS7SE)

 SOLVING FOR HEAD 
                                                   Max.-Head-Change                        Max.-Flux-Residual
  Residual-Control   Outer-Iter.   Inner-Iter.     Column Row Layer    Max.-Head-Change    Column Row Layer    Max.-Flux-Residual            L2-New               L2-Old           Solver-Max-Delh
          0                 1          11            71   16     1       0.3749667236E+01      37   62    2       0.1057049421E+06      0.6463657446E+06      0.1053355356E+01      0.3749667236E+01
          0                 2          10            53  107     3       0.2191352878E+01      37   62    2      -0.1127476320E+05      0.6573742851E+05      0.6463657446E+06      0.2191352878E+01
          0                 3           6            53  107     3      -0.1992362239E+00      53  107    3      -0.7366468921E+03      0.7878356974E+03      0.6573742851E+05     -0.1992362239E+00
          0                 4           2            27   79     2       0.3713976634E-03      12   81    3       0.3455213569E+00      0.5152634819E+00      0.7878356974E+03      0.3713976634E-03

    ------------------------------------------------
       NWT REQUIRED            4 OUTER ITERATIONS 
       AND A TOTAL OF         29 INNER ITERATIONS.
    ------------------------------------------------

 NO OUTPUT CONTROL FOR STRESS PERIOD   61   TIME STEP    2

 INTERPOLATION FOR HEAD OBS#  197, ID 3228-61-73   CHANGED BECAUSE AT LEAST ONE
 NEIGHBORING CELL REQUIRED FOR INTERPOLATION IS DRY OR INACTIVE (OBS2BAS7SE)

 SOLVING FOR HEAD 
                                                   Max.-Head-Change                        Max.-Flux-Residual
  Residual-Control   Outer-Iter.   Inner-Iter.     Column Row Layer    Max.-Head-Change    Column Row Layer    Max.-Flux-Residual            L2-New               L2-Old           Solver-Max-Delh
          0                 1          11            53  107     3       0.3975947841E+01      71   16    1       0.9342227743E+05      0.5519743284E+06      0.5152634819E+00      0.3975947841E+01
          0                 2          10            53  107     3      -0.3624488489E+00      71   16    1      -0.9422422559E+04      0.5531608321E+05      0.5519743284E+06     -0.3624488489E+00
          0                 3           6            54   49     2       0.2496876891E-01      54   49    2       0.1450286747E+04      0.1450588499E+04      0.5531608321E+05      0.2496876891E-01
          0                 4           4            54   49     2       0.2247088860E-02      54   49    2       0.1305142473E+03      0.1305157591E+03      0.1450588499E+04      0.2247088860E-02

    ------------------------------------------------
       NWT REQUIRED            4 OUTER ITERATIONS 
       AND A TOTAL OF         31 INNER ITERATIONS.
    ------------------------------------------------

 NO OUTPUT CONTROL FOR STRESS PERIOD   61   TIME STEP    3

 SOLVING FOR HEAD 
                                                   Max.-Head-Change                        Max.-Flux-Residual
  Residual-Control   Outer-Iter.   Inner-Iter.     Column Row Layer    Max.-Head-Change    Column Row Layer    Max.-Flux-Residual            L2-New               L2-Old           Solver-Max-Delh
          0                 1          11            71   16     1       0.3323587502E+01      71   16    1       0.8794425569E+05      0.4993702885E+06      0.1305157591E+03      0.3323587502E+01
          0                 2          10            71   16     1      -0.3040554635E+00      71   16    1      -0.8863004845E+04      0.5004179261E+05      0.4993702885E+06     -0.3040554635E+00
          0                 3           6            54   49     2      -0.9854668234E-02      54   49    2      -0.3330098345E+03      0.3439770802E+03      0.5004179261E+05     -0.9854668234E-02

    ------------------------------------------------
       NWT REQUIRED            3 OUTER ITERATIONS 
       AND A TOTAL OF         27 INNER ITERATIONS.
    ------------------------------------------------

 NO OUTPUT CONTROL FOR STRESS PERIOD   61   TIME STEP    4

 SOLVING FOR HEAD 
                                                   Max.-Head-Change                        Max.-Flux-Residual
  Residual-Control   Outer-Iter.   Inner-Iter.     Column Row Layer    Max.-Head-Change    Column Row Layer    Max.-Flux-Residual            L2-New               L2-Old           Solver-Max-Delh
          0                 1          11            70   19     2       0.7434237477E+01      71   16    1       0.8282272374E+05      0.4641219700E+06      0.3439770802E+03      0.7434237477E+01
          0                 2          10            72   15     2       0.1769237705E+01      72   15    2       0.1606855414E+05      0.4937312929E+05      0.4641219700E+06      0.1769237705E+01
          0                 3           6            72   15     2      -0.1650057661E+00      72   15    2      -0.1643523451E+04      0.1835165229E+04      0.4937312929E+05     -0.1650057661E+00
          0                 4           2            27   79     2       0.3777340867E-03      72   14    2       0.3299644499E+01      0.3874194571E+01      0.1835165229E+04      0.3777340867E-03

    ------------------------------------------------
       NWT REQUIRED            4 OUTER ITERATIONS 
       AND A TOTAL OF         29 INNER ITERATIONS.
    ------------------------------------------------

 NO OUTPUT CONTROL FOR STRESS PERIOD   61   TIME STEP    5

 SOLVING FOR HEAD 
                                                   Max.-Head-Change                        Max.-Flux-Residual
  Residual-Control   Outer-Iter.   Inner-Iter.     Column Row Layer    Max.-Head-Change    Column Row Layer    Max.-Flux-Residual            L2-New               L2-Old           Solver-Max-Delh
          0                 1          11            72   15     2       0.6130667092E+01      70   19    1       0.1001090937E+06      0.4434361029E+06      0.3874194571E+01      0.6130667092E+01
          0                 2          10            73   14     1      -0.2221006369E+01      73   14    1      -0.7633266301E+05      0.8848590008E+05      0.4434361029E+06     -0.2221006369E+01
          0                 3           5            71   20     2      -0.3663155186E-02      71   20    2      -0.1172914521E+03      0.1255263926E+03      0.8848590008E+05     -0.3663155186E-02

    ------------------------------------------------
       NWT REQUIRED            3 OUTER ITERATIONS 
       AND A TOTAL OF         26 INNER ITERATIONS.
    ------------------------------------------------

 NO OUTPUT CONTROL FOR STRESS PERIOD   61   TIME STEP    6

 SOLVING FOR HEAD 
                                                   Max.-Head-Change                        Max.-Flux-Residual
  Residual-Control   Outer-Iter.   Inner-Iter.     Column Row Layer    Max.-Head-Change    Column Row Layer    Max.-Flux-Residual            L2-New               L2-Old           Solver-Max-Delh
          0                 1          11            70   19     1       0.3247184576E+01      70   19    1       0.9372377751E+05      0.4243373633E+06      0.1255263926E+03      0.3247184576E+01
          0                 2          10            70   19     1      -0.2968873881E+00      70   19    1      -0.9443102712E+04      0.4255597997E+05      0.4243373633E+06     -0.2968873881E+00
          0                 3           5            65    7     3       0.1270351440E-01      65    7    3       0.4052414384E+03      0.4056458153E+03      0.4255597997E+05      0.1270351440E-01
          0                 4           3            65    7     3       0.1143656691E-02      65    7    3       0.3647121314E+02      0.3647164844E+02      0.4056458153E+03      0.1143656691E-02

    ------------------------------------------------
       NWT REQUIRED            4 OUTER ITERATIONS 
       AND A TOTAL OF         29 INNER ITERATIONS.
    ------------------------------------------------

 NO OUTPUT CONTROL FOR STRESS PERIOD   61   TIME STEP    7

 SOLVING FOR HEAD 
                                                   Max.-Head-Change                        Max.-Flux-Residual
  Residual-Control   Outer-Iter.   Inner-Iter.     Column Row Layer    Max.-Head-Change    Column Row Layer    Max.-Flux-Residual            L2-New               L2-Old           Solver-Max-Delh
          0                 1          11            70   19     1       0.3039180321E+01      70   19    1       0.8765512134E+05      0.4072701778E+06      0.3647164844E+02      0.3039180321E+01
          0                 2          10            69   21     2       0.1599054151E+01      69   21    2       0.1565861865E+05      0.4376048567E+05      0.4072701778E+06      0.1599054151E+01
          0                 3           6            69   21     2      -0.1453460302E+00      69   21    2      -0.1563759440E+04      0.1896147686E+04      0.4376048567E+05     -0.1453460302E+00
          0                 4           2            64    7     3      -0.8762761658E-03      64    7    3      -0.2846810014E+02      0.3017022514E+02      0.1896147686E+04     -0.8762761658E-03

    ------------------------------------------------
       NWT REQUIRED            4 OUTER ITERATIONS 
       AND A TOTAL OF         29 INNER ITERATIONS.
    ------------------------------------------------

 NO OUTPUT CONTROL FOR STRESS PERIOD   61   TIME STEP    8

 SOLVING FOR HEAD 
                                                   Max.-Head-Change                        Max.-Flux-Residual
  Residual-Control   Outer-Iter.   Inner-Iter.     Column Row Layer    Max.-Head-Change    Column Row Layer    Max.-Flux-Residual            L2-New               L2-Old           Solver-Max-Delh
          0                 1          12            72   15     1       0.2866025331E+01      70   19    1       0.8144888760E+05      0.3936636579E+06      0.3017022514E+02      0.2866025331E+01
          0                 2          10            72   15     1      -0.2613191263E+00      70   19    1      -0.8189794773E+04      0.3945400693E+05      0.3936636579E+06     -0.2613191263E+00
          0                 3           5            91   77     2      -0.2158276201E-02      73   15    1      -0.4925128914E+01      0.1724403065E+02      0.3945400693E+05     -0.2158276201E-02

    ------------------------------------------------
       NWT REQUIRED            3 OUTER ITERATIONS 
       AND A TOTAL OF         27 INNER ITERATIONS.
    ------------------------------------------------

 NO OUTPUT CONTROL FOR STRESS PERIOD   61   TIME STEP    9

 SOLVING FOR HEAD 
                                                   Max.-Head-Change                        Max.-Flux-Residual
  Residual-Control   Outer-Iter.   Inner-Iter.     Column Row Layer    Max.-Head-Change    Column Row Layer    Max.-Flux-Residual            L2-New               L2-Old           Solver-Max-Delh
          0                 1          12            72   15     1       0.2710063842E+01      70   19    1       0.7503888758E+05      0.3827544838E+06      0.1724403065E+02      0.2710063842E+01
          0                 2          10            72   15     1      -0.2472767739E+00      70   19    1      -0.7539243945E+04      0.3832800927E+05      0.3827544838E+06     -0.2472767739E+00
          0                 3           5            91   77     2      -0.2069210400E-02      73   15    1      -0.5463443181E+01      0.1737662526E+02      0.3832800927E+05     -0.2069210400E-02

    ------------------------------------------------
       NWT REQUIRED            3 OUTER ITERATIONS 
       AND A TOTAL OF         27 INNER ITERATIONS.
    ------------------------------------------------

 NO OUTPUT CONTROL FOR STRESS PERIOD   61   TIME STEP   10

 SOLVING FOR HEAD 
                                                   Max.-Head-Change                        Max.-Flux-Residual
  Residual-Control   Outer-Iter.   Inner-Iter.     Column Row Layer    Max.-Head-Change    Column Row Layer    Max.-Flux-Residual            L2-New               L2-Old           Solver-Max-Delh
          0                 1          12            72   15     1       0.2566937755E+01      70   19    1       0.6933356087E+05      0.3727976654E+06      0.1737662526E+02      0.2566937755E+01
          0                 2          10            72   15     1      -0.2340938065E+00      70   19    1      -0.6961222970E+04      0.3733565941E+05      0.3727976654E+06     -0.2340938065E+00
          0                 3           5            91   77     2      -0.1985163690E-02      64   16    2       0.7424180596E+01      0.2018344953E+02      0.3733565941E+05     -0.1985163690E-02

    ------------------------------------------------
       NWT REQUIRED            3 OUTER ITERATIONS 
       AND A TOTAL OF         27 INNER ITERATIONS.
    ------------------------------------------------

 NO OUTPUT CONTROL FOR STRESS PERIOD   61   TIME STEP   11

 SOLVING FOR HEAD 
                                                   Max.-Head-Change                        Max.-Flux-Residual
  Residual-Control   Outer-Iter.   Inner-Iter.     Column Row Layer    Max.-Head-Change    Column Row Layer    Max.-Flux-Residual            L2-New               L2-Old           Solver-Max-Delh
          0                 1          12            72   15     1       0.2435948016E+01      70   19    1       0.6426184662E+05      0.3642493546E+06      0.2018344953E+02      0.2435948016E+01
          0                 2          10            73   14     2       0.3602359501E+00      70   19    1      -0.6448176071E+04      0.3669355941E+05      0.3642493546E+06      0.3602359501E+00
          0                 3           5            73   14     2      -0.3271073040E-01      73   14    2      -0.4540181829E+03      0.5655202161E+03      0.3669355941E+05     -0.3271073040E-01
          0                 4           2            27   79     2       0.3784198984E-03      91   77    2      -0.5314036715E-01      0.1432967251E+00      0.5655202161E+03      0.3784198984E-03

    ------------------------------------------------
       NWT REQUIRED            4 OUTER ITERATIONS 
       AND A TOTAL OF         29 INNER ITERATIONS.
    ------------------------------------------------

 OUTPUT CONTROL FOR STRESS PERIOD   61   TIME STEP   12
    SAVE BUDGET
 UBDSV1 SAVING "         STORAGE" ON UNIT  39 AT TIME STEP 12, STRESS PERIOD  61
 UBDSV2 SAVING "   CONSTANT HEAD" ON UNIT  39 AT TIME STEP 12, STRESS PERIOD  61
 UBDSV1 SAVING "FLOW RIGHT FACE " ON UNIT  39 AT TIME STEP 12, STRESS PERIOD  61
 UBDSV1 SAVING "FLOW FRONT FACE " ON UNIT  39 AT TIME STEP 12, STRESS PERIOD  61
 UBDSV1 SAVING "FLOW LOWER FACE " ON UNIT  39 AT TIME STEP 12, STRESS PERIOD  61
 UBDSV3 SAVING "              ET" ON UNIT  39 AT TIME STEP 12, STRESS PERIOD  61
 UBDSV3 SAVING "        RECHARGE" ON UNIT  39 AT TIME STEP 12, STRESS PERIOD  61
1
  VOLUMETRIC BUDGET FOR ENTIRE MODEL AT END OF TIME STEP   12, STRESS PERIOD  61
  ------------------------------------------------------------------------------

     CUMULATIVE VOLUMES      L**3       RATES FOR THIS TIME STEP      L**3/T
     ------------------                 ------------------------

           IN:                                      IN:
           ---                                      ---
             STORAGE = 66431897600.0000               STORAGE =      566857.8750
       CONSTANT HEAD = 23047761920.0000         CONSTANT HEAD =     1135088.5000
               WELLS =   324179520.0000                 WELLS =           0.0000
                  ET =           0.0000                    ET =           0.0000
            RECHARGE =461805682688.0000              RECHARGE =    33142994.0000

            TOTAL IN =551609499648.0000              TOTAL IN =    34844940.0000

          OUT:                                     OUT:
          ----                                     ----
             STORAGE =149371256832.0000               STORAGE =    13711582.0000
       CONSTANT HEAD =151868375040.0000         CONSTANT HEAD =     7158077.5000
               WELLS =   877173952.0000                 WELLS =       46271.0000
                  ET =249493618688.0000                    ET =    13929034.0000
            RECHARGE =           0.0000              RECHARGE =           0.0000

           TOTAL OUT =551610417152.0000             TOTAL OUT =    34844968.0000

            IN - OUT =     -917504.0000              IN - OUT =         -28.0000

 PERCENT DISCREPANCY =          -0.00     PERCENT DISCREPANCY =          -0.00






         TIME SUMMARY AT END OF TIME STEP   12 IN STRESS PERIOD   61
                    SECONDS     MINUTES      HOURS       DAYS        YEARS
                    -----------------------------------------------------------
   TIME STEP LENGTH 2.63520E+06  43920.      732.00      30.500     8.35044E-02
 STRESS PERIOD TIME 3.16224E+07 5.27040E+05  8784.0      366.00      1.0021    
         TOTAL TIME 1.92507E+09 3.20846E+07 5.34743E+05  22281.      61.002    
1
1
                            STRESS PERIOD NO.   62, LENGTH =   365.0000    
                            -----------------------------------------------

                              NUMBER OF TIME STEPS =    12

                               MULTIPLIER FOR DELT =     1.000

                            INITIAL TIME STEP SIZE =   30.41667    

 WELL NO.  LAYER   ROW   COL   STRESS RATE         
 --------------------------------------------------
      1      2     91     64     -0.4627E+05
      2      1     93     64     -0.5019E+05

      2 WELLS

 REUSING SURF FROM LAST STRESS PERIOD

 REUSING EVTR FROM LAST STRESS PERIOD

 REUSING EXDP FROM LAST STRESS PERIOD



                           RECHARGE
 READING ON UNIT   16 WITH FORMAT: (15F5.0)            


     63 TIME-VARIANT SPECIFIED-HEAD CELLS

 SOLVING FOR HEAD 
                                                   Max.-Head-Change                        Max.-Flux-Residual
  Residual-Control   Outer-Iter.   Inner-Iter.     Column Row Layer    Max.-Head-Change    Column Row Layer    Max.-Flux-Residual            L2-New               L2-Old           Solver-Max-Delh
          0                 1          12            65    2     2      -0.9113525367E+02      33   27    1       0.3412589831E+06      0.1066255876E+07      0.1432967251E+00     -0.9113525367E+02
          0                 2          10            66    1     2      -0.4596548690E+02      33   27    1      -0.3722085826E+05      0.1098024335E+06      0.1066255876E+07     -0.4596548690E+02
          0                 3           6            66    1     2       0.1250438264E+01      66    1    3      -0.1653529586E+04      0.1776396480E+04      0.1098024335E+06      0.1250438264E+01
          0                 4           3            66    1     2       0.7886173655E-01      66    1    2       0.3160943132E+02      0.3214478472E+02      0.1776396480E+04      0.7886173655E-01
          0                 5           2            66    1     2       0.4967658138E-02      66    1    3       0.2810384333E+01      0.3486311796E+01      0.3214478472E+02      0.4967658138E-02

    ------------------------------------------------
       NWT REQUIRED            5 OUTER ITERATIONS 
       AND A TOTAL OF         33 INNER ITERATIONS.
    ------------------------------------------------

 NO OUTPUT CONTROL FOR STRESS PERIOD   62   TIME STEP    1

 SOLVING FOR HEAD 
                                                   Max.-Head-Change                        Max.-Flux-Residual
  Residual-Control   Outer-Iter.   Inner-Iter.     Column Row Layer    Max.-Head-Change    Column Row Layer    Max.-Flux-Residual            L2-New               L2-Old           Solver-Max-Delh
          0                 1          12            66    1     2      -0.1533604502E+02      33   27    1       0.1544333906E+06      0.6611504549E+06      0.3486311796E+01     -0.1533604502E+02
          0                 2          10            66    1     2       0.4263838708E+00      33   27    1      -0.1603405441E+05      0.6603195731E+05      0.6611504549E+06      0.4263838708E+00
          0                 3           5            66    1     2       0.2681376401E-01      68   47    1      -0.1217255227E+03      0.1898020157E+03      0.6603195731E+05      0.2681376401E-01
          0                 4           3            66    1     2       0.1683825067E-02      68   47    1      -0.1045424223E+02      0.1058579981E+02      0.1898020157E+03      0.1683825067E-02

    ------------------------------------------------
       NWT REQUIRED            4 OUTER ITERATIONS 
       AND A TOTAL OF         30 INNER ITERATIONS.
    ------------------------------------------------

 NO OUTPUT CONTROL FOR STRESS PERIOD   62   TIME STEP    2

 SOLVING FOR HEAD 
                                                   Max.-Head-Change                        Max.-Flux-Residual
  Residual-Control   Outer-Iter.   Inner-Iter.     Column Row Layer    Max.-Head-Change    Column Row Layer    Max.-Flux-Residual            L2-New               L2-Old           Solver-Max-Delh
          0                 1          12            92   52     1      -0.2353808218E+01      87   51    1      -0.8460353430E+05      0.5288445251E+06      0.1058579981E+02     -0.2353808218E+01
          0                 2          10            73   14     2       0.3677789631E+00      73   14    2       0.1217070457E+05      0.5446189329E+05      0.5288445251E+06      0.3677789631E+00
          0                 3           5            87   51     1       0.7908537510E-02      87   51    1       0.3522580785E+03      0.3561339303E+03      0.5446189329E+05      0.7908537510E-02

    ------------------------------------------------
       NWT REQUIRED            3 OUTER ITERATIONS 
       AND A TOTAL OF         27 INNER ITERATIONS.
    ------------------------------------------------

 NO OUTPUT CONTROL FOR STRESS PERIOD   62   TIME STEP    3

 SOLVING FOR HEAD 
                                                   Max.-Head-Change                        Max.-Flux-Residual
  Residual-Control   Outer-Iter.   Inner-Iter.     Column Row Layer    Max.-Head-Change    Column Row Layer    Max.-Flux-Residual            L2-New               L2-Old           Solver-Max-Delh
          0                 1          11            92   52     1      -0.2213061585E+01      92   52    1      -0.7855401127E+05      0.4583905143E+06      0.3561339303E+03     -0.2213061585E+01
          0                 2          10            87   51     1       0.3081436716E+00      87   51    1       0.1377663829E+05      0.4715931061E+05      0.4583905143E+06      0.3081436716E+00
          0                 3           5            71   15     1      -0.4031698594E-02      71   15    2       0.2844434781E+02      0.4173715864E+02      0.4715931061E+05     -0.4031698594E-02

    ------------------------------------------------
       NWT REQUIRED            3 OUTER ITERATIONS 
       AND A TOTAL OF         26 INNER ITERATIONS.
    ------------------------------------------------

 NO OUTPUT CONTROL FOR STRESS PERIOD   62   TIME STEP    4

 SOLVING FOR HEAD 
                                                   Max.-Head-Change                        Max.-Flux-Residual
  Residual-Control   Outer-Iter.   Inner-Iter.     Column Row Layer    Max.-Head-Change    Column Row Layer    Max.-Flux-Residual            L2-New               L2-Old           Solver-Max-Delh
          0                 1          11            92   52     1      -0.2089593475E+01      92   52    1      -0.7384869130E+05      0.4109404324E+06      0.4173715864E+02     -0.2089593475E+01
          0                 2          10            92   52     1       0.1886497189E+00      90   51    1       0.7485898869E+04      0.4152163993E+05      0.4109404324E+06      0.1886497189E+00
          0                 3           5            91   77     2       0.2270131750E-02      25    8    2      -0.6764998711E+02      0.7459646462E+02      0.4152163993E+05      0.2270131750E-02

    ------------------------------------------------
       NWT REQUIRED            3 OUTER ITERATIONS 
       AND A TOTAL OF         26 INNER ITERATIONS.
    ------------------------------------------------

 NO OUTPUT CONTROL FOR STRESS PERIOD   62   TIME STEP    5

 SOLVING FOR HEAD 
                                                   Max.-Head-Change                        Max.-Flux-Residual
  Residual-Control   Outer-Iter.   Inner-Iter.     Column Row Layer    Max.-Head-Change    Column Row Layer    Max.-Flux-Residual            L2-New               L2-Old           Solver-Max-Delh
          0                 1          11            92   52     1      -0.1980233264E+01      92   52    1      -0.6971927980E+05      0.3764771310E+06      0.7459646462E+02     -0.1980233264E+01
          0                 2          10            91   52     1       0.2566521468E+00      91   52    1       0.1095257442E+05      0.3904314101E+05      0.3764771310E+06      0.2566521468E+00
          0                 3           5            91   77     2       0.2201455215E-02      73   13    1       0.2148405276E+01      0.1182071568E+02      0.3904314101E+05      0.2201455215E-02

    ------------------------------------------------
       NWT REQUIRED            3 OUTER ITERATIONS 
       AND A TOTAL OF         26 INNER ITERATIONS.
    ------------------------------------------------

 NO OUTPUT CONTROL FOR STRESS PERIOD   62   TIME STEP    6

 SOLVING FOR HEAD 
                                                   Max.-Head-Change                        Max.-Flux-Residual
  Residual-Control   Outer-Iter.   Inner-Iter.     Column Row Layer    Max.-Head-Change    Column Row Layer    Max.-Flux-Residual            L2-New               L2-Old           Solver-Max-Delh
          0                 1          11            92   52     1      -0.1715157191E+01      92   52    1      -0.6480383964E+05      0.3492881951E+06      0.1182071568E+02     -0.1715157191E+01
          0                 2          10            92   77     2       0.6372542205E+01      92   52    1       0.6436535074E+04      0.3482233464E+05      0.3492881951E+06      0.6372542205E+01
          1                 2           0            92   77     2       0.5735287832E+01      92   77    2      -0.1825286839E+06      0.1826112882E+06      0.3482233464E+05      0.6372542205E+01
          2                 2           0            92   77     2       0.5161758912E+01      92   77    2      -0.1639865113E+06      0.1640985639E+06      0.1826112882E+06      0.6372542205E+01
          3                 2           0            92   77     2       0.4645582898E+01      92   77    2      -0.1473098143E+06      0.1475264758E+06      0.1640985639E+06      0.6372542205E+01
          4                 2           0            92   77     2       0.4181024497E+01      92   77    2      -0.1323099063E+06      0.1327076975E+06      0.1475264758E+06      0.6372542205E+01
          5                 2           0            92   77     2       0.3762921948E+01      92   77    2      -0.1188173758E+06      0.1194748823E+06      0.1327076975E+06      0.6372542205E+01
          6                 2           0            92   77     2       0.3386629663E+01      92   77    2      -0.1066800815E+06      0.1076785741E+06      0.1194748823E+06      0.6372542205E+01
          7                 2           0            92   77     2       0.3047966616E+01      92   77    2      -0.9576136312E+05      0.9718529128E+05      0.1076785741E+06      0.6372542205E+01
          8                 2           0            92   77     2       0.2743169882E+01      92   77    2      -0.8593844220E+05      0.8787575721E+05      0.9718529128E+05      0.6372542205E+01
                                                   Max.-Head-Change                        Max.-Flux-Residual
  Residual-Control   Outer-Iter.   Inner-Iter.     Column Row Layer    Max.-Head-Change    Column Row Layer    Max.-Flux-Residual            L2-New               L2-Old           Solver-Max-Delh
          9                 2           0            92   77     2       0.2468852828E+01      92   77    2      -0.7710099316E+05      0.7964321868E+05      0.8787575721E+05      0.6372542205E+01
         10                 2           0            92   77     2       0.2221967487E+01      92   77    2      -0.6914986468E+05      0.7239181976E+05      0.7964321868E+05      0.6372542205E+01
          0                 3          10            92   77     2      -0.1947245320E+01      92   77    2      -0.6199593535E+05      0.6603502505E+05      0.7239181976E+05     -0.1947245320E+01
          0                 4           5            92   77     2      -0.1776043451E+00      92   77    2      -0.5642618953E+04      0.5646705177E+04      0.6603502505E+05     -0.1776043451E+00
          0                 5           3            92   77     2      -0.1599042270E-01      92   77    2      -0.5078538669E+03      0.5081325101E+03      0.5646705177E+04     -0.1599042270E-01
          0                 6           2            92   77     2      -0.1436264976E-02      92   77    2      -0.4560963690E+02      0.4563225723E+02      0.5081325101E+03     -0.1436264976E-02

    ------------------------------------------------
       NWT REQUIRED            6 OUTER ITERATIONS 
       AND A TOTAL OF         41 INNER ITERATIONS.
    ------------------------------------------------

 NO OUTPUT CONTROL FOR STRESS PERIOD   62   TIME STEP    7

 SOLVING FOR HEAD 
                                                   Max.-Head-Change                        Max.-Flux-Residual
  Residual-Control   Outer-Iter.   Inner-Iter.     Column Row Layer    Max.-Head-Change    Column Row Layer    Max.-Flux-Residual            L2-New               L2-Old           Solver-Max-Delh
          0                 1          11            65    6     2      -0.2427324934E+02      92   52    1      -0.5721534409E+05      0.3270499100E+06      0.4563225723E+02     -0.2427324934E+02
          0                 2          10            92   77     2      -0.6098941799E+02      92   77    2      -0.1939355371E+05      0.3929955831E+05      0.3270499100E+06     -0.6098941799E+02
          0                 3           5            92   77     2       0.6441756108E+01      92   77    2       0.4973756088E+04      0.7098731499E+04      0.3929955831E+05      0.6441756108E+01
          0                 4           2            92   77     2       0.2406413537E+00      92   76    2      -0.1892825654E+03      0.2656557476E+03      0.7098731499E+04      0.2406413537E+00
          0                 5           2            92   77     2       0.8812178712E-02      92   77    3       0.9402532415E+01      0.1408520883E+02      0.2656557476E+03      0.8812178712E-02

    ------------------------------------------------
       NWT REQUIRED            5 OUTER ITERATIONS 
       AND A TOTAL OF         30 INNER ITERATIONS.
    ------------------------------------------------

 NO OUTPUT CONTROL FOR STRESS PERIOD   62   TIME STEP    8

 SOLVING FOR HEAD 
                                                   Max.-Head-Change                        Max.-Flux-Residual
  Residual-Control   Outer-Iter.   Inner-Iter.     Column Row Layer    Max.-Head-Change    Column Row Layer    Max.-Flux-Residual            L2-New               L2-Old           Solver-Max-Delh
          0                 1          11            65    3     2      -0.2235428628E+02      89   51    1      -0.5266767652E+05      0.3077399524E+06      0.1408520883E+02     -0.2235428628E+02
          0                 2          10            73   14     1      -0.1405378064E+01      73   14    1      -0.1007913745E+05      0.3245411972E+05      0.3077399524E+06     -0.1405378064E+01
          0                 3           5            73   14     1       0.1226122106E+00      73   14    1       0.9690359543E+03      0.9806214453E+03      0.3245411972E+05      0.1226122106E+00
          0                 4           2            65    3     2       0.3429959143E-02      73   14    1       0.3389863059E+01      0.3807355191E+01      0.9806214453E+03      0.3429959143E-02

    ------------------------------------------------
       NWT REQUIRED            4 OUTER ITERATIONS 
       AND A TOTAL OF         28 INNER ITERATIONS.
    ------------------------------------------------

 NO OUTPUT CONTROL FOR STRESS PERIOD   62   TIME STEP    9

 SOLVING FOR HEAD 
                                                   Max.-Head-Change                        Max.-Flux-Residual
  Residual-Control   Outer-Iter.   Inner-Iter.     Column Row Layer    Max.-Head-Change    Column Row Layer    Max.-Flux-Residual            L2-New               L2-Old           Solver-Max-Delh
          0                 1          11            73   14     1      -0.1727619571E+01      89   51    1      -0.4956643729E+05      0.2921653060E+06      0.3807355191E+01     -0.1727619571E+01
          0                 2          10            65    5     2      -0.6071267727E+01      89   51    1       0.4929969341E+04      0.2954997503E+05      0.2921653060E+06     -0.6071267727E+01
          0                 3           5            65    5     2       0.2580915084E+00      14    3    2      -0.3435632370E+03      0.3855937159E+03      0.2954997503E+05      0.2580915084E+00
          0                 4           2            65    5     2       0.1245274748E-01      65    5    2       0.6564946515E+01      0.6634416481E+01      0.3855937159E+03      0.1245274748E-01
          0                 5           2            65    5     2       0.5997701121E-03      65    5    2       0.3161449539E+00      0.3523154246E+00      0.6634416481E+01      0.5997701121E-03

    ------------------------------------------------
       NWT REQUIRED            5 OUTER ITERATIONS 
       AND A TOTAL OF         30 INNER ITERATIONS.
    ------------------------------------------------

 NO OUTPUT CONTROL FOR STRESS PERIOD   62   TIME STEP   10

 SOLVING FOR HEAD 
                                                   Max.-Head-Change                        Max.-Flux-Residual
  Residual-Control   Outer-Iter.   Inner-Iter.     Column Row Layer    Max.-Head-Change    Column Row Layer    Max.-Flux-Residual            L2-New               L2-Old           Solver-Max-Delh
          0                 1          11            65    5     2      -0.1906901738E+02      89   51    1      -0.4659084360E+05      0.2791958536E+06      0.3523154246E+00     -0.1906901738E+02
          0                 2          10            65    5     2       0.1625670164E+01      89   51    1       0.4633759762E+04      0.2810218422E+05      0.2791958536E+06      0.1625670164E+01
          0                 3           5            65    5     2       0.7040055472E-01      65    5    2       0.4097897385E+02      0.4250066074E+02      0.2810218422E+05      0.7040055472E-01
          0                 4           2            65    5     2       0.3042733011E-02      65    5    2       0.1771589105E+01      0.1778469730E+01      0.4250066074E+02      0.3042733011E-02

    ------------------------------------------------
       NWT REQUIRED            4 OUTER ITERATIONS 
       AND A TOTAL OF         28 INNER ITERATIONS.
    ------------------------------------------------

 NO OUTPUT CONTROL FOR STRESS PERIOD   62   TIME STEP   11

 SOLVING FOR HEAD 
                                                   Max.-Head-Change                        Max.-Flux-Residual
  Residual-Control   Outer-Iter.   Inner-Iter.     Column Row Layer    Max.-Head-Change    Column Row Layer    Max.-Flux-Residual            L2-New               L2-Old           Solver-Max-Delh
          0                 1          11            89   51     1      -0.1232243140E+01      89   51    1      -0.4376487290E+05      0.2678263511E+06      0.1778469730E+01     -0.1232243140E+01
          0                 2          10            89   51     1       0.1115345515E+00      89   51    1       0.4352867548E+04      0.2678013975E+05      0.2678263511E+06      0.1115345515E+00
          0                 3           5            27   79     2       0.1462515525E-02      73   14    1       0.2328191794E+01      0.1075167123E+02      0.2678013975E+05      0.1462515525E-02

    ------------------------------------------------
       NWT REQUIRED            3 OUTER ITERATIONS 
       AND A TOTAL OF         26 INNER ITERATIONS.
    ------------------------------------------------

 OUTPUT CONTROL FOR STRESS PERIOD   62   TIME STEP   12
    SAVE BUDGET
 UBDSV1 SAVING "         STORAGE" ON UNIT  39 AT TIME STEP 12, STRESS PERIOD  62
 UBDSV2 SAVING "   CONSTANT HEAD" ON UNIT  39 AT TIME STEP 12, STRESS PERIOD  62
 UBDSV1 SAVING "FLOW RIGHT FACE " ON UNIT  39 AT TIME STEP 12, STRESS PERIOD  62
 UBDSV1 SAVING "FLOW FRONT FACE " ON UNIT  39 AT TIME STEP 12, STRESS PERIOD  62
 UBDSV1 SAVING "FLOW LOWER FACE " ON UNIT  39 AT TIME STEP 12, STRESS PERIOD  62
 UBDSV3 SAVING "              ET" ON UNIT  39 AT TIME STEP 12, STRESS PERIOD  62
 UBDSV3 SAVING "        RECHARGE" ON UNIT  39 AT TIME STEP 12, STRESS PERIOD  62
1
  VOLUMETRIC BUDGET FOR ENTIRE MODEL AT END OF TIME STEP   12, STRESS PERIOD  62
  ------------------------------------------------------------------------------

     CUMULATIVE VOLUMES      L**3       RATES FOR THIS TIME STEP      L**3/T
     ------------------                 ------------------------

           IN:                                      IN:
           ---                                      ---
             STORAGE = 68599738368.0000               STORAGE =     4369087.0000
       CONSTANT HEAD = 23472375808.0000         CONSTANT HEAD =     1163336.1250
               WELLS =   324179520.0000                 WELLS =           0.0000
                  ET =           0.0000                    ET =           0.0000
            RECHARGE =468935081984.0000              RECHARGE =    19532334.0000

            TOTAL IN =561331372032.0000              TOTAL IN =    25064756.0000

          OUT:                                     OUT:
          ----                                     ----
             STORAGE =151946936320.0000               STORAGE =     6267630.0000
       CONSTANT HEAD =154467778560.0000         CONSTANT HEAD =     7089742.0000
               WELLS =   912381376.0000                 WELLS =       96459.0000
                  ET =254005084160.0000                    ET =    11610951.0000
            RECHARGE =           0.0000              RECHARGE =           0.0000

           TOTAL OUT =561332224000.0000             TOTAL OUT =    25064782.0000

            IN - OUT =     -851968.0000              IN - OUT =         -26.0000

 PERCENT DISCREPANCY =          -0.00     PERCENT DISCREPANCY =          -0.00






         TIME SUMMARY AT END OF TIME STEP   12 IN STRESS PERIOD   62
                    SECONDS     MINUTES      HOURS       DAYS        YEARS
                    -----------------------------------------------------------
   TIME STEP LENGTH 2.62800E+06  43800.      730.00      30.417     8.32763E-02
 STRESS PERIOD TIME 3.15360E+07 5.25600E+05  8760.0      365.00     0.99932    
         TOTAL TIME 1.95661E+09 3.26102E+07 5.43503E+05  22646.      62.001    
1
1
                            STRESS PERIOD NO.   63, LENGTH =   365.0000    
                            -----------------------------------------------

                              NUMBER OF TIME STEPS =    12

                               MULTIPLIER FOR DELT =     1.000

                            INITIAL TIME STEP SIZE =   30.41667    

 WELL NO.  LAYER   ROW   COL   STRESS RATE         
 --------------------------------------------------
      1      1     94     63     -0.5019E+05
      2      2     94     63     -0.5019E+05

      2 WELLS

 REUSING SURF FROM LAST STRESS PERIOD

 REUSING EVTR FROM LAST STRESS PERIOD

 REUSING EXDP FROM LAST STRESS PERIOD



                           RECHARGE
 READING ON UNIT   16 WITH FORMAT: (15F5.0)            


     63 TIME-VARIANT SPECIFIED-HEAD CELLS

 SOLVING FOR HEAD 
                                                   Max.-Head-Change                        Max.-Flux-Residual
  Residual-Control   Outer-Iter.   Inner-Iter.     Column Row Layer    Max.-Head-Change    Column Row Layer    Max.-Flux-Residual            L2-New               L2-Old           Solver-Max-Delh
          0                 1          12            92   77     2      -0.8155276078E+01      33   26    1       0.3422806204E+06      0.8708713568E+06      0.1075167123E+02     -0.8155276078E+01
          0                 2          10            53  107     3       0.5501934237E+00      33   26    1      -0.3697550074E+05      0.8989721086E+05      0.8708713568E+06      0.5501934237E+00
          0                 3           6            92   77     2       0.1421463241E-01      20   42    2      -0.3027671786E+02      0.7780965982E+02      0.8989721086E+05      0.1421463241E-01
          0                 4           3            92   77     2       0.5345336004E-03      20   43    2       0.2315258421E+01      0.2954462889E+01      0.7780965982E+02      0.5345336004E-03

    ------------------------------------------------
       NWT REQUIRED            4 OUTER ITERATIONS 
       AND A TOTAL OF         31 INNER ITERATIONS.
    ------------------------------------------------

 NO OUTPUT CONTROL FOR STRESS PERIOD   63   TIME STEP    1

 SOLVING FOR HEAD 
                                                   Max.-Head-Change                        Max.-Flux-Residual
  Residual-Control   Outer-Iter.   Inner-Iter.     Column Row Layer    Max.-Head-Change    Column Row Layer    Max.-Flux-Residual            L2-New               L2-Old           Solver-Max-Delh
          0                 1          12            33   27     1       0.2477469538E+01      33   27    1       0.1593618674E+06      0.5431102593E+06      0.2954462889E+01      0.2477469538E+01
          0                 2          10            39   20     3       0.2562206488E+00      33   27    1      -0.1649379004E+05      0.5504945630E+05      0.5431102593E+06      0.2562206488E+00
          0                 3           6            39   20     3      -0.2329481781E-01      39   20    3      -0.3263058861E+03      0.3446611684E+03      0.5504945630E+05     -0.2329481781E-01
          0                 4           4            27   79     2       0.3788824160E-03      63   85    1       0.3623783171E+01      0.3743415993E+01      0.3446611684E+03      0.3788824160E-03

    ------------------------------------------------
       NWT REQUIRED            4 OUTER ITERATIONS 
       AND A TOTAL OF         32 INNER ITERATIONS.
    ------------------------------------------------

 NO OUTPUT CONTROL FOR STRESS PERIOD   63   TIME STEP    2

 SOLVING FOR HEAD 
                                                   Max.-Head-Change                        Max.-Flux-Residual
  Residual-Control   Outer-Iter.   Inner-Iter.     Column Row Layer    Max.-Head-Change    Column Row Layer    Max.-Flux-Residual            L2-New               L2-Old           Solver-Max-Delh
          0                 1          12            81   46     1      -0.1939624268E+01      33   27    1       0.9284191985E+05      0.4537603685E+06      0.3743415993E+01     -0.1939624268E+01
          0                 2          10            81   46     1       0.1762222673E+00      33   27    1      -0.9432054664E+04      0.4559227801E+05      0.4537603685E+06      0.1762222673E+00
          0                 3           5            86   52     1       0.1817864649E-02      86   52    1       0.7818824323E+02      0.7940733559E+02      0.4559227801E+05      0.1817864649E-02

    ------------------------------------------------
       NWT REQUIRED            3 OUTER ITERATIONS 
       AND A TOTAL OF         27 INNER ITERATIONS.
    ------------------------------------------------

 NO OUTPUT CONTROL FOR STRESS PERIOD   63   TIME STEP    3

 SOLVING FOR HEAD 
                                                   Max.-Head-Change                        Max.-Flux-Residual
  Residual-Control   Outer-Iter.   Inner-Iter.     Column Row Layer    Max.-Head-Change    Column Row Layer    Max.-Flux-Residual            L2-New               L2-Old           Solver-Max-Delh
          0                 1          12            81   46     1      -0.1886259631E+01      33   27    1       0.6370095826E+05      0.4129601172E+06      0.7940733559E+02     -0.1886259631E+01
          0                 2          10            81   46     1       0.1720995230E+00      33   27    1      -0.6418193258E+04      0.4130984792E+05      0.4129601172E+06      0.1720995230E+00
          0                 3           5            27   79     2       0.1486563875E-02      73   14    1       0.1820564609E+01      0.1152051984E+02      0.4130984792E+05      0.1486563875E-02

    ------------------------------------------------
       NWT REQUIRED            3 OUTER ITERATIONS 
       AND A TOTAL OF         27 INNER ITERATIONS.
    ------------------------------------------------

 NO OUTPUT CONTROL FOR STRESS PERIOD   63   TIME STEP    4

 SOLVING FOR HEAD 
                                                   Max.-Head-Change                        Max.-Flux-Residual
  Residual-Control   Outer-Iter.   Inner-Iter.     Column Row Layer    Max.-Head-Change    Column Row Layer    Max.-Flux-Residual            L2-New               L2-Old           Solver-Max-Delh
          0                 1          12            81   46     1      -0.1832129404E+01      81   46    1      -0.5895054887E+05      0.3871123015E+06      0.1152051984E+02     -0.1832129404E+01
          0                 2          10            81   46     1       0.1664557068E+00      81   46    1       0.5890627017E+04      0.3907504923E+05      0.3871123015E+06      0.1664557068E+00
          0                 3           5            27   79     2       0.1488319830E-02      53  106    3      -0.2059432148E+02      0.3112418148E+02      0.3907504923E+05      0.1488319830E-02

    ------------------------------------------------
       NWT REQUIRED            3 OUTER ITERATIONS 
       AND A TOTAL OF         27 INNER ITERATIONS.
    ------------------------------------------------

 NO OUTPUT CONTROL FOR STRESS PERIOD   63   TIME STEP    5

 SOLVING FOR HEAD 
                                                   Max.-Head-Change                        Max.-Flux-Residual
  Residual-Control   Outer-Iter.   Inner-Iter.     Column Row Layer    Max.-Head-Change    Column Row Layer    Max.-Flux-Residual            L2-New               L2-Old           Solver-Max-Delh
          0                 1          12            81   46     1      -0.1779906697E+01      81   46    1      -0.5728244660E+05      0.3681356525E+06      0.3112418148E+02     -0.1779906697E+01
          0                 2          10            81   46     1       0.1616975239E+00      81   46    1       0.5723985923E+04      0.3686188083E+05      0.3681356525E+06      0.1616975239E+00
          0                 3           5            14    2     2      -0.4229255490E-02      14    2    2      -0.1494325284E+03      0.1560671891E+03      0.3686188083E+05     -0.4229255490E-02

    ------------------------------------------------
       NWT REQUIRED            3 OUTER ITERATIONS 
       AND A TOTAL OF         27 INNER ITERATIONS.
    ------------------------------------------------

 NO OUTPUT CONTROL FOR STRESS PERIOD   63   TIME STEP    6

 SOLVING FOR HEAD 
                                                   Max.-Head-Change                        Max.-Flux-Residual
  Residual-Control   Outer-Iter.   Inner-Iter.     Column Row Layer    Max.-Head-Change    Column Row Layer    Max.-Flux-Residual            L2-New               L2-Old           Solver-Max-Delh
          0                 1          12            81   46     1      -0.1728908472E+01      81   46    1      -0.5564955001E+05      0.3532185102E+06      0.1560671891E+03     -0.1728908472E+01
          0                 2          10            81   46     1       0.1570795566E+00      81   46    1       0.5560879523E+04      0.3557146221E+05      0.3532185102E+06      0.1570795566E+00
          0                 3           6            13    2     2       0.1422849750E-01      13    2    2       0.9241185058E+03      0.9252748485E+03      0.3557146221E+05      0.1422849750E-01
          0                 4           4            13    2     2       0.1280655223E-02      13    2    2       0.8316390693E+02      0.8317904074E+02      0.9252748485E+03      0.1280655223E-02

    ------------------------------------------------
       NWT REQUIRED            4 OUTER ITERATIONS 
       AND A TOTAL OF         32 INNER ITERATIONS.
    ------------------------------------------------

 NO OUTPUT CONTROL FOR STRESS PERIOD   63   TIME STEP    7

 SOLVING FOR HEAD 
                                                   Max.-Head-Change                        Max.-Flux-Residual
  Residual-Control   Outer-Iter.   Inner-Iter.     Column Row Layer    Max.-Head-Change    Column Row Layer    Max.-Flux-Residual            L2-New               L2-Old           Solver-Max-Delh
          0                 1          12            81   46     1      -0.1679136359E+01      81   46    1      -0.5405398040E+05      0.3410403760E+06      0.8317904074E+02     -0.1679136359E+01
          0                 2          10            81   46     1       0.1525593328E+00      13    7    1      -0.7451706739E+04      0.3512427644E+05      0.3410403760E+06      0.1525593328E+00
          0                 3           5            13    2     2      -0.1124894268E-01      13    2    2      -0.3795233628E+03      0.3883098317E+03      0.3512427644E+05     -0.1124894268E-01
          0                 4           2            27   79     2       0.3809594251E-03      27   79    2       0.2917641855E-01      0.1109873972E+00      0.3883098317E+03      0.3809594251E-03

    ------------------------------------------------
       NWT REQUIRED            4 OUTER ITERATIONS 
       AND A TOTAL OF         29 INNER ITERATIONS.
    ------------------------------------------------

 NO OUTPUT CONTROL FOR STRESS PERIOD   63   TIME STEP    8

 SOLVING FOR HEAD 
                                                   Max.-Head-Change                        Max.-Flux-Residual
  Residual-Control   Outer-Iter.   Inner-Iter.     Column Row Layer    Max.-Head-Change    Column Row Layer    Max.-Flux-Residual            L2-New               L2-Old           Solver-Max-Delh
          0                 1          12            81   46     1      -0.1630646073E+01      81   46    1      -0.5249726987E+05      0.3307268282E+06      0.1109873972E+00     -0.1630646073E+01
          0                 2          10            81   46     1       0.1559584084E+00      81   46    1       0.6013954655E+04      0.3325073407E+05      0.3307268282E+06      0.1559584084E+00
          0                 3           5            51  117     1       0.4002456271E-02      51  117    1       0.7186255911E+02      0.7370260455E+02      0.3325073407E+05      0.4002456271E-02

    ------------------------------------------------
       NWT REQUIRED            3 OUTER ITERATIONS 
       AND A TOTAL OF         27 INNER ITERATIONS.
    ------------------------------------------------

 NO OUTPUT CONTROL FOR STRESS PERIOD   63   TIME STEP    9

 SOLVING FOR HEAD 
                                                   Max.-Head-Change                        Max.-Flux-Residual
  Residual-Control   Outer-Iter.   Inner-Iter.     Column Row Layer    Max.-Head-Change    Column Row Layer    Max.-Flux-Residual            L2-New               L2-Old           Solver-Max-Delh
          0                 1          12            81   46     1      -0.1448437270E+01      81   46    1      -0.5071235323E+05      0.3218448633E+06      0.7370260455E+02     -0.1448437270E+01
          0                 2          10            81   46     1       0.1316141606E+00      81   46    1       0.5068316065E+04      0.3219336357E+05      0.3218448633E+06      0.1316141606E+00
          0                 3           5            27   79     2       0.1494473202E-02      39   61    3      -0.2034198655E+02      0.2464638413E+02      0.3219336357E+05      0.1494473202E-02

    ------------------------------------------------
       NWT REQUIRED            3 OUTER ITERATIONS 
       AND A TOTAL OF         27 INNER ITERATIONS.
    ------------------------------------------------

 NO OUTPUT CONTROL FOR STRESS PERIOD   63   TIME STEP   10

 SOLVING FOR HEAD 
                                                   Max.-Head-Change                        Max.-Flux-Residual
  Residual-Control   Outer-Iter.   Inner-Iter.     Column Row Layer    Max.-Head-Change    Column Row Layer    Max.-Flux-Residual            L2-New               L2-Old           Solver-Max-Delh
          0                 1          12            81   46     1      -0.1294452472E+01      81   46    1      -0.4528322152E+05      0.3135264736E+06      0.2464638413E+02     -0.1294452472E+01
          0                 2          10            81   46     1       0.1176278071E+00      13    7    2       0.6144678646E+04      0.3197525904E+05      0.3135264736E+06      0.1176278071E+00
          0                 3           6            13    7     2      -0.6033022693E-02      13    7    2      -0.5745628675E+03      0.6250159787E+03      0.3197525904E+05     -0.6033022693E-02

    ------------------------------------------------
       NWT REQUIRED            3 OUTER ITERATIONS 
       AND A TOTAL OF         28 INNER ITERATIONS.
    ------------------------------------------------

 NO OUTPUT CONTROL FOR STRESS PERIOD   63   TIME STEP   11

 SOLVING FOR HEAD 
                                                   Max.-Head-Change                        Max.-Flux-Residual
  Residual-Control   Outer-Iter.   Inner-Iter.     Column Row Layer    Max.-Head-Change    Column Row Layer    Max.-Flux-Residual            L2-New               L2-Old           Solver-Max-Delh
          0                 1          12            81   46     1      -0.1157846762E+01      81   46    1      -0.4046860045E+05      0.3063196849E+06      0.6250159787E+03     -0.1157846762E+01
          0                 2          10            81   46     1       0.1052189098E+00      81   46    1       0.4044992950E+04      0.3063693449E+05      0.3063196849E+06      0.1052189098E+00
          0                 3           6            26   59     2      -0.7939356684E-02      26   59    2      -0.1810107527E+03      0.1812917988E+03      0.3063693449E+05     -0.7939356684E-02

    ------------------------------------------------
       NWT REQUIRED            3 OUTER ITERATIONS 
       AND A TOTAL OF         28 INNER ITERATIONS.
    ------------------------------------------------

 OUTPUT CONTROL FOR STRESS PERIOD   63   TIME STEP   12
    SAVE BUDGET
 UBDSV1 SAVING "         STORAGE" ON UNIT  39 AT TIME STEP 12, STRESS PERIOD  63
 UBDSV2 SAVING "   CONSTANT HEAD" ON UNIT  39 AT TIME STEP 12, STRESS PERIOD  63
 UBDSV1 SAVING "FLOW RIGHT FACE " ON UNIT  39 AT TIME STEP 12, STRESS PERIOD  63
 UBDSV1 SAVING "FLOW FRONT FACE " ON UNIT  39 AT TIME STEP 12, STRESS PERIOD  63
 UBDSV1 SAVING "FLOW LOWER FACE " ON UNIT  39 AT TIME STEP 12, STRESS PERIOD  63
 UBDSV3 SAVING "              ET" ON UNIT  39 AT TIME STEP 12, STRESS PERIOD  63
 UBDSV3 SAVING "        RECHARGE" ON UNIT  39 AT TIME STEP 12, STRESS PERIOD  63
1
  VOLUMETRIC BUDGET FOR ENTIRE MODEL AT END OF TIME STEP   12, STRESS PERIOD  63
  ------------------------------------------------------------------------------

     CUMULATIVE VOLUMES      L**3       RATES FOR THIS TIME STEP      L**3/T
     ------------------                 ------------------------

           IN:                                      IN:
           ---                                      ---
             STORAGE = 70371909632.0000               STORAGE =     4194333.0000
       CONSTANT HEAD = 23891582976.0000         CONSTANT HEAD =     1136134.0000
               WELLS =   324179520.0000                 WELLS =           0.0000
                  ET =           0.0000                    ET =           0.0000
            RECHARGE =476406972416.0000              RECHARGE =    20470828.0000

            TOTAL IN =570994655232.0000              TOTAL IN =    25801296.0000

          OUT:                                     OUT:
          ----                                     ----
             STORAGE =155025833984.0000               STORAGE =     8181277.5000
       CONSTANT HEAD =157057515520.0000         CONSTANT HEAD =     7087431.5000
               WELLS =   949018816.0000                 WELLS =      100376.0000
                  ET =257962999808.0000                    ET =    10432233.0000
            RECHARGE =           0.0000              RECHARGE =           0.0000

           TOTAL OUT =570995376128.0000             TOTAL OUT =    25801318.0000

            IN - OUT =     -720896.0000              IN - OUT =         -22.0000

 PERCENT DISCREPANCY =          -0.00     PERCENT DISCREPANCY =          -0.00






         TIME SUMMARY AT END OF TIME STEP   12 IN STRESS PERIOD   63
                    SECONDS     MINUTES      HOURS       DAYS        YEARS
                    -----------------------------------------------------------
   TIME STEP LENGTH 2.62800E+06  43800.      730.00      30.417     8.32763E-02
 STRESS PERIOD TIME 3.15360E+07 5.25600E+05  8760.0      365.00     0.99932    
         TOTAL TIME 1.98815E+09 3.31358E+07 5.52263E+05  23011.      63.001    
1
1
                            STRESS PERIOD NO.   64, LENGTH =   365.0000    
                            -----------------------------------------------

                              NUMBER OF TIME STEPS =    12

                               MULTIPLIER FOR DELT =     1.000

                            INITIAL TIME STEP SIZE =   30.41667    

 WELL NO.  LAYER   ROW   COL   STRESS RATE         
 --------------------------------------------------
      1      2     95     63     -0.6472E+05

      1 WELL 

 REUSING SURF FROM LAST STRESS PERIOD

 REUSING EVTR FROM LAST STRESS PERIOD

 REUSING EXDP FROM LAST STRESS PERIOD



                           RECHARGE
 READING ON UNIT   16 WITH FORMAT: (15F5.0)            


     63 TIME-VARIANT SPECIFIED-HEAD CELLS

 SOLVING FOR HEAD 
                                                   Max.-Head-Change                        Max.-Flux-Residual
  Residual-Control   Outer-Iter.   Inner-Iter.     Column Row Layer    Max.-Head-Change    Column Row Layer    Max.-Flux-Residual            L2-New               L2-Old           Solver-Max-Delh
          0                 1          12            65    2     2       0.9178430985E+02      30   53    1       0.3694780616E+06      0.8948421438E+06      0.1812917988E+03      0.9178430985E+02
          0                 2          11            65    5     2      -0.2650155210E+02      65    5    2      -0.7053446680E+06      0.1026651729E+07      0.8948421438E+06     -0.2650155210E+02
          0                 3           7            66    5     2       0.3715241565E+01      65    5    2      -0.8066289746E+04      0.1146609642E+05      0.1026651729E+07      0.3715241565E+01
          0                 4           5            66    5     2       0.5584958760E+00      65    4    2       0.4333729247E+03      0.6374998716E+03      0.1146609642E+05      0.5584958760E+00
          0                 5           4            66    5     2       0.8253425745E-01      65    4    2       0.3895611319E+02      0.6989016856E+02      0.6374998716E+03      0.8253425745E-01
          0                 6           3            66    5     2       0.1218919190E-01      66    5    2       0.5307968618E+01      0.8379918922E+01      0.6989016856E+02      0.1218919190E-01
          0                 7           2            66    5     2       0.1799017344E-02      66    5    2       0.7833264943E+00      0.1087281877E+01      0.8379918922E+01      0.1799017344E-02

    ------------------------------------------------
       NWT REQUIRED            7 OUTER ITERATIONS 
       AND A TOTAL OF         44 INNER ITERATIONS.
    ------------------------------------------------

 NO OUTPUT CONTROL FOR STRESS PERIOD   64   TIME STEP    1

 SOLVING FOR HEAD 
                                                   Max.-Head-Change                        Max.-Flux-Residual
  Residual-Control   Outer-Iter.   Inner-Iter.     Column Row Layer    Max.-Head-Change    Column Row Layer    Max.-Flux-Residual            L2-New               L2-Old           Solver-Max-Delh
          0                 1          12            30   53     2       0.4896283763E+01      30   53    2       0.1708120854E+06      0.6433635811E+06      0.1087281877E+01      0.4896283763E+01
          0                 2          11            73   14     1      -0.2493444180E+01      73   14    1      -0.8564868631E+05      0.1077483235E+06      0.6433635811E+06     -0.2493444180E+01
          0                 3           6            72   14     1       0.5108850793E-02      73   14    1      -0.3678979970E+02      0.7802648098E+02      0.1077483235E+06      0.5108850793E-02

    ------------------------------------------------
       NWT REQUIRED            3 OUTER ITERATIONS 
       AND A TOTAL OF         29 INNER ITERATIONS.
    ------------------------------------------------

 NO OUTPUT CONTROL FOR STRESS PERIOD   64   TIME STEP    2

 SOLVING FOR HEAD 
                                                   Max.-Head-Change                        Max.-Flux-Residual
  Residual-Control   Outer-Iter.   Inner-Iter.     Column Row Layer    Max.-Head-Change    Column Row Layer    Max.-Flux-Residual            L2-New               L2-Old           Solver-Max-Delh
          0                 1          12            70   19     1       0.3922825697E+01      70   19    1       0.1143155162E+06      0.5610794492E+06      0.7802648098E+02      0.3922825697E+01
          0                 2          11            69   21     2       0.4948837165E+00      70   19    1      -0.1156231713E+05      0.5675553444E+05      0.5610794492E+06      0.4948837165E+00
          0                 3           6            69   21     2      -0.4504942420E-01      69   21    2      -0.5160045189E+03      0.6366789771E+03      0.5675553444E+05     -0.4504942420E-01
          0                 4           2            71   20     2       0.4500033501E-03      71   20    2       0.1460120968E+02      0.1461830877E+02      0.6366789771E+03      0.4500033501E-03

    ------------------------------------------------
       NWT REQUIRED            4 OUTER ITERATIONS 
       AND A TOTAL OF         31 INNER ITERATIONS.
    ------------------------------------------------

 NO OUTPUT CONTROL FOR STRESS PERIOD   64   TIME STEP    3

 SOLVING FOR HEAD 
                                                   Max.-Head-Change                        Max.-Flux-Residual
  Residual-Control   Outer-Iter.   Inner-Iter.     Column Row Layer    Max.-Head-Change    Column Row Layer    Max.-Flux-Residual            L2-New               L2-Old           Solver-Max-Delh
          0                 1          12            70   19     1       0.3646889644E+01      70   19    1       0.1061557710E+06      0.5188739919E+06      0.1461830877E+02      0.3646889644E+01
          0                 2          11            30   52     1      -0.6382921888E+00      30   52    1      -0.2525144546E+05      0.5939408052E+05      0.5188739919E+06     -0.6382921888E+00
          0                 3           5            71   20     2      -0.3833558925E-02      71   20    2      -0.1230781153E+03      0.1290041979E+03      0.5939408052E+05     -0.3833558925E-02

    ------------------------------------------------
       NWT REQUIRED            3 OUTER ITERATIONS 
       AND A TOTAL OF         28 INNER ITERATIONS.
    ------------------------------------------------

 NO OUTPUT CONTROL FOR STRESS PERIOD   64   TIME STEP    4

 SOLVING FOR HEAD 
                                                   Max.-Head-Change                        Max.-Flux-Residual
  Residual-Control   Outer-Iter.   Inner-Iter.     Column Row Layer    Max.-Head-Change    Column Row Layer    Max.-Flux-Residual            L2-New               L2-Old           Solver-Max-Delh
          0                 1          12            70   19     1       0.3390480337E+01      70   19    1       0.9866052787E+05      0.4908593722E+06      0.1290041979E+03      0.3390480337E+01
          0                 2          11            33   51     2      -0.3830230773E+00      33   51    2      -0.2361705546E+05      0.5838282113E+05      0.4908593722E+06     -0.3830230773E+00
          0                 3           6            30   53     2      -0.1655292006E-01      30   53    2      -0.1187621016E+04      0.1399767355E+04      0.5838282113E+05     -0.1655292006E-01
          0                 4           4            27   79     2       0.3881560215E-03      33   51    3       0.4631923670E+01      0.4752269799E+01      0.1399767355E+04      0.3881560215E-03

    ------------------------------------------------
       NWT REQUIRED            4 OUTER ITERATIONS 
       AND A TOTAL OF         33 INNER ITERATIONS.
    ------------------------------------------------

 NO OUTPUT CONTROL FOR STRESS PERIOD   64   TIME STEP    5

 SOLVING FOR HEAD 
                                                   Max.-Head-Change                        Max.-Flux-Residual
  Residual-Control   Outer-Iter.   Inner-Iter.     Column Row Layer    Max.-Head-Change    Column Row Layer    Max.-Flux-Residual            L2-New               L2-Old           Solver-Max-Delh
          0                 1          12            70   19     1       0.3156618277E+01      70   19    1       0.9176705719E+05      0.4694410590E+06      0.4752269799E+01      0.3156618277E+01
          0                 2          11            70   19     2      -0.3120346966E+00      12    7    1      -0.9474612916E+04      0.4805274926E+05      0.4694410590E+06     -0.3120346966E+00
          0                 3           5            71   19     2      -0.1646165987E-02      71   19    2      -0.5226817678E+02      0.6144635312E+02      0.4805274926E+05     -0.1646165987E-02

    ------------------------------------------------
       NWT REQUIRED            3 OUTER ITERATIONS 
       AND A TOTAL OF         28 INNER ITERATIONS.
    ------------------------------------------------

 NO OUTPUT CONTROL FOR STRESS PERIOD   64   TIME STEP    6

 SOLVING FOR HEAD 
                                                   Max.-Head-Change                        Max.-Flux-Residual
  Residual-Control   Outer-Iter.   Inner-Iter.     Column Row Layer    Max.-Head-Change    Column Row Layer    Max.-Flux-Residual            L2-New               L2-Old           Solver-Max-Delh
          0                 1          12            72   15     1       0.2913554894E+01      70   19    1       0.8490328258E+05      0.4547777416E+06      0.6144635312E+02      0.2913554894E+01
          0                 2          11            72   15     1      -0.2662325975E+00      70   19    1      -0.8545154181E+04      0.4576765892E+05      0.4547777416E+06     -0.2662325975E+00
          0                 3           6            64   10     3       0.6021071222E-02      13    6    2      -0.3995148907E+03      0.4504259636E+03      0.4576765892E+05      0.6021071222E-02

    ------------------------------------------------
       NWT REQUIRED            3 OUTER ITERATIONS 
       AND A TOTAL OF         29 INNER ITERATIONS.
    ------------------------------------------------

 NO OUTPUT CONTROL FOR STRESS PERIOD   64   TIME STEP    7

 SOLVING FOR HEAD 
                                                   Max.-Head-Change                        Max.-Flux-Residual
  Residual-Control   Outer-Iter.   Inner-Iter.     Column Row Layer    Max.-Head-Change    Column Row Layer    Max.-Flux-Residual            L2-New               L2-Old           Solver-Max-Delh
          0                 1          12            72   15     1       0.2736730232E+01      70   19    1       0.7784606922E+05      0.4412963837E+06      0.4504259636E+03      0.2736730232E+01
          0                 2          11            73   14     2       0.2980075454E+01      73   14    2       0.3023230224E+05      0.5348788147E+05      0.4412963837E+06      0.2980075454E+01
          0                 3           7            73   14     2      -0.2677121033E+00      73   14    2      -0.2951484204E+04      0.3004314879E+04      0.5348788147E+05     -0.2677121033E+00
          0                 4           2            27   79     2       0.3886707435E-03      72   14    1      -0.5697646365E-01      0.1561538084E+00      0.3004314879E+04      0.3886707435E-03

    ------------------------------------------------
       NWT REQUIRED            4 OUTER ITERATIONS 
       AND A TOTAL OF         32 INNER ITERATIONS.
    ------------------------------------------------

 NO OUTPUT CONTROL FOR STRESS PERIOD   64   TIME STEP    8

 SOLVING FOR HEAD 
                                                   Max.-Head-Change                        Max.-Flux-Residual
  Residual-Control   Outer-Iter.   Inner-Iter.     Column Row Layer    Max.-Head-Change    Column Row Layer    Max.-Flux-Residual            L2-New               L2-Old           Solver-Max-Delh
          0                 1          12            72   15     1       0.2587862094E+01      70   19    1       0.7159221289E+05      0.4317842605E+06      0.1561538084E+00      0.2587862094E+01
          0                 2          11            53  107     3       0.4332469104E+00      53  107    3       0.8404801856E+04      0.4406610772E+05      0.4317842605E+06      0.4332469104E+00
          0                 3           5            27   79     2       0.1484236951E-02      73   15    1      -0.5029136406E+01      0.2162555256E+02      0.4406610772E+05      0.1484236951E-02

    ------------------------------------------------
       NWT REQUIRED            3 OUTER ITERATIONS 
       AND A TOTAL OF         28 INNER ITERATIONS.
    ------------------------------------------------

 NO OUTPUT CONTROL FOR STRESS PERIOD   64   TIME STEP    9

 SOLVING FOR HEAD 
                                                   Max.-Head-Change                        Max.-Flux-Residual
  Residual-Control   Outer-Iter.   Inner-Iter.     Column Row Layer    Max.-Head-Change    Column Row Layer    Max.-Flux-Residual            L2-New               L2-Old           Solver-Max-Delh
          0                 1          12            72   15     1       0.2447563281E+01      70   19    1       0.6605475460E+05      0.4227827790E+06      0.2162555256E+02      0.2447563281E+01
          0                 2          11            72   15     1      -0.2231284031E+00      65   25    1      -0.9498004957E+04      0.4335445103E+05      0.4227827790E+06     -0.2231284031E+00
          0                 3           5            27   79     2       0.1503311298E-02      73   15    1      -0.4965068636E+01      0.2135260787E+02      0.4335445103E+05      0.1503311298E-02

    ------------------------------------------------
       NWT REQUIRED            3 OUTER ITERATIONS 
       AND A TOTAL OF         28 INNER ITERATIONS.
    ------------------------------------------------

 NO OUTPUT CONTROL FOR STRESS PERIOD   64   TIME STEP   10

 SOLVING FOR HEAD 
                                                   Max.-Head-Change                        Max.-Flux-Residual
  Residual-Control   Outer-Iter.   Inner-Iter.     Column Row Layer    Max.-Head-Change    Column Row Layer    Max.-Flux-Residual            L2-New               L2-Old           Solver-Max-Delh
          0                 1          12            72   15     1       0.2320571141E+01      72   15    1       0.6118210104E+05      0.4145156235E+06      0.2135260787E+02      0.2320571141E+01
          0                 2          11            66   24     1      -0.3866252793E+00      66   24    1      -0.1974218425E+05      0.4628963120E+05      0.4145156235E+06     -0.3866252793E+00
          0                 3           6            30   52     2      -0.3482130866E-02      30   52    2      -0.3176056600E+03      0.3844263005E+03      0.4628963120E+05     -0.3482130866E-02

    ------------------------------------------------
       NWT REQUIRED            3 OUTER ITERATIONS 
       AND A TOTAL OF         29 INNER ITERATIONS.
    ------------------------------------------------

 NO OUTPUT CONTROL FOR STRESS PERIOD   64   TIME STEP   11

 SOLVING FOR HEAD 
                                                   Max.-Head-Change                        Max.-Flux-Residual
  Residual-Control   Outer-Iter.   Inner-Iter.     Column Row Layer    Max.-Head-Change    Column Row Layer    Max.-Flux-Residual            L2-New               L2-Old           Solver-Max-Delh
          0                 1          12            72   15     1       0.2205624068E+01      72   15    1       0.5801162176E+05      0.4070506660E+06      0.3844263005E+03      0.2205624068E+01
          0                 2          11            72   15     1      -0.2008810211E+00      72   15    1      -0.5822182380E+04      0.4098800053E+05      0.4070506660E+06     -0.2008810211E+00
          0                 3           6            65   25     2      -0.4420084533E-02      65   25    2      -0.1189105862E+03      0.1474041547E+03      0.4098800053E+05     -0.4420084533E-02

    ------------------------------------------------
       NWT REQUIRED            3 OUTER ITERATIONS 
       AND A TOTAL OF         29 INNER ITERATIONS.
    ------------------------------------------------

 OUTPUT CONTROL FOR STRESS PERIOD   64   TIME STEP   12
    SAVE BUDGET
 UBDSV1 SAVING "         STORAGE" ON UNIT  39 AT TIME STEP 12, STRESS PERIOD  64
 UBDSV2 SAVING "   CONSTANT HEAD" ON UNIT  39 AT TIME STEP 12, STRESS PERIOD  64
 UBDSV1 SAVING "FLOW RIGHT FACE " ON UNIT  39 AT TIME STEP 12, STRESS PERIOD  64
 UBDSV1 SAVING "FLOW FRONT FACE " ON UNIT  39 AT TIME STEP 12, STRESS PERIOD  64
 UBDSV1 SAVING "FLOW LOWER FACE " ON UNIT  39 AT TIME STEP 12, STRESS PERIOD  64
 UBDSV3 SAVING "              ET" ON UNIT  39 AT TIME STEP 12, STRESS PERIOD  64
 UBDSV3 SAVING "        RECHARGE" ON UNIT  39 AT TIME STEP 12, STRESS PERIOD  64
1
  VOLUMETRIC BUDGET FOR ENTIRE MODEL AT END OF TIME STEP   12, STRESS PERIOD  64
  ------------------------------------------------------------------------------

     CUMULATIVE VOLUMES      L**3       RATES FOR THIS TIME STEP      L**3/T
     ------------------                 ------------------------

           IN:                                      IN:
           ---                                      ---
             STORAGE = 71326334976.0000               STORAGE =     2336755.7500
       CONSTANT HEAD = 24294809600.0000         CONSTANT HEAD =     1080397.7500
               WELLS =   324179520.0000                 WELLS =           0.0000
                  ET =           0.0000                    ET =           0.0000
            RECHARGE =486591660032.0000              RECHARGE =    27903472.0000

            TOTAL IN =582536986624.0000              TOTAL IN =    31320626.0000

          OUT:                                     OUT:
          ----                                     ----
             STORAGE =160128958464.0000               STORAGE =    13688300.0000
       CONSTANT HEAD =159631687680.0000         CONSTANT HEAD =     7026419.0000
               WELLS =   972640192.0000                 WELLS =       64717.0000
                  ET =261804523520.0000                    ET =    10541208.0000
            RECHARGE =           0.0000              RECHARGE =           0.0000

           TOTAL OUT =582537838592.0000             TOTAL OUT =    31320644.0000

            IN - OUT =     -851968.0000              IN - OUT =         -18.0000

 PERCENT DISCREPANCY =          -0.00     PERCENT DISCREPANCY =          -0.00






         TIME SUMMARY AT END OF TIME STEP   12 IN STRESS PERIOD   64
                    SECONDS     MINUTES      HOURS       DAYS        YEARS
                    -----------------------------------------------------------
   TIME STEP LENGTH 2.62800E+06  43800.      730.00      30.417     8.32763E-02
 STRESS PERIOD TIME 3.15360E+07 5.25600E+05  8760.0      365.00     0.99932    
         TOTAL TIME 2.01968E+09 3.36613E+07 5.61022E+05  23376.      64.000    
1
1
                            STRESS PERIOD NO.   65, LENGTH =   366.0000    
                            -----------------------------------------------

                              NUMBER OF TIME STEPS =    12

                               MULTIPLIER FOR DELT =     1.000

                            INITIAL TIME STEP SIZE =   30.50000    

 WELL NO.  LAYER   ROW   COL   STRESS RATE         
 --------------------------------------------------
      1      2     95     63     -0.6472E+05

      1 WELL 

 REUSING SURF FROM LAST STRESS PERIOD

 REUSING EVTR FROM LAST STRESS PERIOD

 REUSING EXDP FROM LAST STRESS PERIOD



                           RECHARGE
 READING ON UNIT   16 WITH FORMAT: (15F5.0)            


     63 TIME-VARIANT SPECIFIED-HEAD CELLS

 SOLVING FOR HEAD 
                                                   Max.-Head-Change                        Max.-Flux-Residual
  Residual-Control   Outer-Iter.   Inner-Iter.     Column Row Layer    Max.-Head-Change    Column Row Layer    Max.-Flux-Residual            L2-New               L2-Old           Solver-Max-Delh
          0                 1          12            65    2     2      -0.8497199064E+02      30   53    1       0.5804140948E+06      0.1051080382E+07      0.1474041547E+03     -0.8497199064E+02
          0                 2          11            66    1     2      -0.1408179696E+02      30   54    1      -0.5471284802E+06      0.5605489866E+06      0.1051080382E+07     -0.1408179696E+02
          0                 3           7            66    1     2       0.3861190370E+00      30   54    1      -0.9514852927E+04      0.1109156372E+05      0.5605489866E+06      0.3861190370E+00
          0                 4           6            66    1     2       0.2445797047E-01      31   54    1       0.2444183884E+03      0.4228662140E+03      0.1109156372E+05      0.2445797047E-01
          0                 5           4            66    1     2       0.1546987421E-02      31   54    1       0.2216980518E+02      0.3834127622E+02      0.4228662140E+03      0.1546987421E-02

    ------------------------------------------------
       NWT REQUIRED            5 OUTER ITERATIONS 
       AND A TOTAL OF         40 INNER ITERATIONS.
    ------------------------------------------------

 NO OUTPUT CONTROL FOR STRESS PERIOD   65   TIME STEP    1

 SOLVING FOR HEAD 
                                                   Max.-Head-Change                        Max.-Flux-Residual
  Residual-Control   Outer-Iter.   Inner-Iter.     Column Row Layer    Max.-Head-Change    Column Row Layer    Max.-Flux-Residual            L2-New               L2-Old           Solver-Max-Delh
          0                 1          12            66    1     2      -0.4025325419E+02      30   53    1       0.3173664496E+06      0.7187369271E+06      0.3834127622E+02     -0.4025325419E+02
          0                 2          11            66    1     2       0.1111451441E+01      30   53    1      -0.3507152807E+05      0.7493324468E+05      0.7187369271E+06      0.1111451441E+01
          0                 3           6            66    1     2       0.6973745165E-01      30   53    1      -0.3460047340E+02      0.5954207465E+02      0.7493324468E+05      0.6973745165E-01
          0                 4           2            66    1     2       0.4370301155E-02      66    1    2       0.1751321047E+01      0.1794610538E+01      0.5954207465E+02      0.4370301155E-02

    ------------------------------------------------
       NWT REQUIRED            4 OUTER ITERATIONS 
       AND A TOTAL OF         31 INNER ITERATIONS.
    ------------------------------------------------

 NO OUTPUT CONTROL FOR STRESS PERIOD   65   TIME STEP    2

 SOLVING FOR HEAD 
                                                   Max.-Head-Change                        Max.-Flux-Residual
  Residual-Control   Outer-Iter.   Inner-Iter.     Column Row Layer    Max.-Head-Change    Column Row Layer    Max.-Flux-Residual            L2-New               L2-Old           Solver-Max-Delh
          0                 1          12            30   53     1       0.6349718670E+01      30   53    1       0.1851191855E+06      0.6001236129E+06      0.1794610538E+01      0.6349718670E+01
          0                 2          11            31   53     2       0.5784396596E+00      31   53    2       0.2156296052E+05      0.6504646144E+05      0.6001236129E+06      0.5784396596E+00
          0                 3           7            31   53     2      -0.5266799959E-01      31   53    2      -0.1632425222E+04      0.1814928036E+04      0.6504646144E+05     -0.5266799959E-01
          0                 4           2            27   79     2       0.3821932739E-03      31   43    2       0.5177484080E-01      0.1815255294E+00      0.1814928036E+04      0.3821932739E-03

    ------------------------------------------------
       NWT REQUIRED            4 OUTER ITERATIONS 
       AND A TOTAL OF         32 INNER ITERATIONS.
    ------------------------------------------------

 NO OUTPUT CONTROL FOR STRESS PERIOD   65   TIME STEP    3

 SOLVING FOR HEAD 
                                                   Max.-Head-Change                        Max.-Flux-Residual
  Residual-Control   Outer-Iter.   Inner-Iter.     Column Row Layer    Max.-Head-Change    Column Row Layer    Max.-Flux-Residual            L2-New               L2-Old           Solver-Max-Delh
          0                 1          12            31   53     2       0.4813032426E+01      30   53    1       0.1200953500E+06      0.5399325576E+06      0.1815255294E+00      0.4813032426E+01
          0                 2          11            30   54     2       0.7366689182E+00      30   54    2       0.4740540225E+05      0.7236638909E+05      0.5399325576E+06      0.7366689182E+00
          0                 3           7            30   54     2      -0.6710606941E-01      30   54    2      -0.4296533025E+04      0.4569418209E+04      0.7236638909E+05     -0.6710606941E-01
          0                 4           5            15   20     2       0.6981799081E-03      15   20    2       0.4420258137E+02      0.4421450123E+02      0.4569418209E+04      0.6981799081E-03

    ------------------------------------------------
       NWT REQUIRED            4 OUTER ITERATIONS 
       AND A TOTAL OF         35 INNER ITERATIONS.
    ------------------------------------------------

 NO OUTPUT CONTROL FOR STRESS PERIOD   65   TIME STEP    4

 SOLVING FOR HEAD 
                                                   Max.-Head-Change                        Max.-Flux-Residual
  Residual-Control   Outer-Iter.   Inner-Iter.     Column Row Layer    Max.-Head-Change    Column Row Layer    Max.-Flux-Residual            L2-New               L2-Old           Solver-Max-Delh
          0                 1          12            30   54     2       0.3795485228E+01      30   53    1       0.8987650346E+05      0.5068283751E+06      0.4421450123E+02      0.3795485228E+01
          0                 2          11            30   54     2      -0.3470940725E+00      30   54    1      -0.9165162207E+04      0.5091380999E+05      0.5068283751E+06     -0.3470940725E+00
          0                 3           6            15   20     2      -0.8607078229E-02      15   20    2      -0.2893218676E+03      0.3040938090E+03      0.5091380999E+05     -0.8607078229E-02

    ------------------------------------------------
       NWT REQUIRED            3 OUTER ITERATIONS 
       AND A TOTAL OF         29 INNER ITERATIONS.
    ------------------------------------------------

 NO OUTPUT CONTROL FOR STRESS PERIOD   65   TIME STEP    5

 SOLVING FOR HEAD 
                                                   Max.-Head-Change                        Max.-Flux-Residual
  Residual-Control   Outer-Iter.   Inner-Iter.     Column Row Layer    Max.-Head-Change    Column Row Layer    Max.-Flux-Residual            L2-New               L2-Old           Solver-Max-Delh
          0                 1          12            29   53     1       0.3159347546E+01      30   54    1       0.7635661812E+05      0.4830878014E+06      0.3040938090E+03      0.3159347546E+01
          0                 2          11            87   67     1      -0.1374668501E+01      30   54    1      -0.7645032291E+04      0.4843333543E+05      0.4830878014E+06     -0.1374668501E+01
          0                 3           7            87   67     1       0.8652262982E-01      20   35    2       0.3001022004E+03      0.3347385501E+03      0.4843333543E+05      0.8652262982E-01
          0                 4           6            87   67     1       0.2430061548E-02      20   35    2       0.2700715040E+02      0.2724195067E+02      0.3347385501E+03      0.2430061548E-02

    ------------------------------------------------
       NWT REQUIRED            4 OUTER ITERATIONS 
       AND A TOTAL OF         36 INNER ITERATIONS.
    ------------------------------------------------

 NO OUTPUT CONTROL FOR STRESS PERIOD   65   TIME STEP    6

 SOLVING FOR HEAD 
                                                   Max.-Head-Change                        Max.-Flux-Residual
  Residual-Control   Outer-Iter.   Inner-Iter.     Column Row Layer    Max.-Head-Change    Column Row Layer    Max.-Flux-Residual            L2-New               L2-Old           Solver-Max-Delh
          0                 1          12            29   53     1       0.2741299973E+01      29   53    2       0.6380587684E+05      0.4635135313E+06      0.2724195067E+02      0.2741299973E+01
          0                 2          11            29   53     1      -0.2484161084E+00      29   53    2      -0.6447236727E+04      0.4705238312E+05      0.4635135313E+06     -0.2484161084E+00
          0                 3           7            20   35     2      -0.7060158060E-02      20   35    2      -0.1712428327E+03      0.2134525210E+03      0.4705238312E+05     -0.7060158060E-02

    ------------------------------------------------
       NWT REQUIRED            3 OUTER ITERATIONS 
       AND A TOTAL OF         30 INNER ITERATIONS.
    ------------------------------------------------

 NO OUTPUT CONTROL FOR STRESS PERIOD   65   TIME STEP    7

 SOLVING FOR HEAD 
                                                   Max.-Head-Change                        Max.-Flux-Residual
  Residual-Control   Outer-Iter.   Inner-Iter.     Column Row Layer    Max.-Head-Change    Column Row Layer    Max.-Flux-Residual            L2-New               L2-Old           Solver-Max-Delh
          0                 1          12            29   53     1       0.2416416909E+01      29   53    2       0.5555913182E+05      0.4487170187E+06      0.2134525210E+03      0.2416416909E+01
          0                 2          11            29   53     1      -0.2186120934E+00      23   53    2      -0.7412923512E+04      0.4604641075E+05      0.4487170187E+06     -0.2186120934E+00
          0                 3           6            27   79     2       0.1498235334E-02      29   54    1      -0.5053156659E+01      0.2776815684E+02      0.4604641075E+05      0.1498235334E-02

    ------------------------------------------------
       NWT REQUIRED            3 OUTER ITERATIONS 
       AND A TOTAL OF         29 INNER ITERATIONS.
    ------------------------------------------------

 NO OUTPUT CONTROL FOR STRESS PERIOD   65   TIME STEP    8

 SOLVING FOR HEAD 
                                                   Max.-Head-Change                        Max.-Flux-Residual
  Residual-Control   Outer-Iter.   Inner-Iter.     Column Row Layer    Max.-Head-Change    Column Row Layer    Max.-Flux-Residual            L2-New               L2-Old           Solver-Max-Delh
          0                 1          12            29   53     1       0.2164221871E+01      29   53    2       0.4908186751E+05      0.4368070394E+06      0.2776815684E+02      0.2164221871E+01
          0                 2          11            29   52     1      -0.2583494418E+00      29   52    1      -0.8141363084E+04      0.4485698175E+05      0.4368070394E+06     -0.2583494418E+00
          0                 3           6            24    4     2      -0.5722739772E-02      13    4    2      -0.1791432966E+03      0.2727466762E+03      0.4485698175E+05     -0.5722739772E-02

    ------------------------------------------------
       NWT REQUIRED            3 OUTER ITERATIONS 
       AND A TOTAL OF         29 INNER ITERATIONS.
    ------------------------------------------------

 NO OUTPUT CONTROL FOR STRESS PERIOD   65   TIME STEP    9

 SOLVING FOR HEAD 
                                                   Max.-Head-Change                        Max.-Flux-Residual
  Residual-Control   Outer-Iter.   Inner-Iter.     Column Row Layer    Max.-Head-Change    Column Row Layer    Max.-Flux-Residual            L2-New               L2-Old           Solver-Max-Delh
          0                 1          12            31   51     2       0.1943009436E+01      33   51    2       0.4617816560E+05      0.4270314337E+06      0.2727466762E+03      0.1943009436E+01
          0                 2          11            31   51     2      -0.1768742976E+00      33   51    2      -0.4617433022E+04      0.4275281577E+05      0.4270314337E+06     -0.1768742976E+00
          0                 3           6            65    6     2      -0.6350718200E-01      65    6    2      -0.1809214375E+04      0.1818501446E+04      0.4275281577E+05     -0.6350718200E-01
          0                 4           2            65    6     2      -0.5718032879E-02      65    6    2      -0.1629436307E+03      0.1629903756E+03      0.1818501446E+04     -0.5718032879E-02

    ------------------------------------------------
       NWT REQUIRED            4 OUTER ITERATIONS 
       AND A TOTAL OF         31 INNER ITERATIONS.
    ------------------------------------------------

 NO OUTPUT CONTROL FOR STRESS PERIOD   65   TIME STEP   10

 SOLVING FOR HEAD 
                                                   Max.-Head-Change                        Max.-Flux-Residual
  Residual-Control   Outer-Iter.   Inner-Iter.     Column Row Layer    Max.-Head-Change    Column Row Layer    Max.-Flux-Residual            L2-New               L2-Old           Solver-Max-Delh
          0                 1          12            31   51     2       0.1824786088E+01      33   51    2       0.4526040625E+05      0.4179071414E+06      0.1629903756E+03      0.1824786088E+01
          0                 2          11            65    6     2      -0.1820784966E+02      31   52    2       0.1187760256E+05      0.4452838791E+05      0.4179071414E+06     -0.1820784966E+02
          0                 3           7            65    6     2       0.1390468635E+01      65    6    3      -0.9990073892E+03      0.1793709034E+04      0.4452838791E+05      0.1390468635E+01
          0                 4           3            65    6     2       0.5148664096E-01      65    6    2       0.3511360240E+02      0.4423104971E+02      0.1793709034E+04      0.5148664096E-01
          0                 5           2            65    6     2       0.1899537831E-02      65    6    3       0.2796549469E+01      0.3731562067E+01      0.4423104971E+02      0.1899537831E-02

    ------------------------------------------------
       NWT REQUIRED            5 OUTER ITERATIONS 
       AND A TOTAL OF         35 INNER ITERATIONS.
    ------------------------------------------------

 NO OUTPUT CONTROL FOR STRESS PERIOD   65   TIME STEP   11

 INTERPOLATION FOR HEAD OBS# 3710, ID 1471-65-336  CHANGED BECAUSE AT LEAST ONE
 NEIGHBORING CELL REQUIRED FOR INTERPOLATION IS DRY OR INACTIVE (OBS2BAS7SE)

 INTERPOLATION FOR HEAD OBS# 5428, ID 846-65-362   CHANGED BECAUSE AT LEAST ONE
 NEIGHBORING CELL REQUIRED FOR INTERPOLATION IS DRY OR INACTIVE (OBS2BAS7SE)

 SOLVING FOR HEAD 
                                                   Max.-Head-Change                        Max.-Flux-Residual
  Residual-Control   Outer-Iter.   Inner-Iter.     Column Row Layer    Max.-Head-Change    Column Row Layer    Max.-Flux-Residual            L2-New               L2-Old           Solver-Max-Delh
          0                 1          12            31   52     2       0.2650196060E+01      33   51    2       0.4438552355E+05      0.4109460805E+06      0.3731562067E+01      0.2650196060E+01
          0                 2          11            65    3     2      -0.6702323670E+01      31   54    1      -0.2861283226E+05      0.5088276428E+05      0.4109460805E+06     -0.6702323670E+01
          0                 3           6            65    3     2       0.2241055840E+00      29   51    1      -0.1761826336E+03      0.2718667430E+03      0.5088276428E+05      0.2241055840E+00
          0                 4           2            65    3     2       0.1283428352E-01      65    3    2       0.5663274463E+01      0.5789274723E+01      0.2718667430E+03      0.1283428352E-01
          0                 5           2            65    3     2       0.7338920966E-03      65    3    2       0.3238039173E+00      0.3435726835E+00      0.5789274723E+01      0.7338920966E-03

    ------------------------------------------------
       NWT REQUIRED            5 OUTER ITERATIONS 
       AND A TOTAL OF         33 INNER ITERATIONS.
    ------------------------------------------------

 OUTPUT CONTROL FOR STRESS PERIOD   65   TIME STEP   12
    SAVE BUDGET
    SAVE HEAD FOR LAYERS:   1  2  3
 UBDSV1 SAVING "         STORAGE" ON UNIT  39 AT TIME STEP 12, STRESS PERIOD  65
 UBDSV2 SAVING "   CONSTANT HEAD" ON UNIT  39 AT TIME STEP 12, STRESS PERIOD  65
 UBDSV1 SAVING "FLOW RIGHT FACE " ON UNIT  39 AT TIME STEP 12, STRESS PERIOD  65
 UBDSV1 SAVING "FLOW FRONT FACE " ON UNIT  39 AT TIME STEP 12, STRESS PERIOD  65
 UBDSV1 SAVING "FLOW LOWER FACE " ON UNIT  39 AT TIME STEP 12, STRESS PERIOD  65
 UBDSV3 SAVING "              ET" ON UNIT  39 AT TIME STEP 12, STRESS PERIOD  65
 UBDSV3 SAVING "        RECHARGE" ON UNIT  39 AT TIME STEP 12, STRESS PERIOD  65

 INTERPOLATION FOR HEAD OBS#  198, ID 3228-66-19   CHANGED BECAUSE AT LEAST ONE
 NEIGHBORING CELL REQUIRED FOR INTERPOLATION IS DRY OR INACTIVE (OBS2BAS7SE)

 INTERPOLATION FOR HEAD OBS#  639, ID 3014-66-25   CHANGED BECAUSE AT LEAST ONE
 NEIGHBORING CELL REQUIRED FOR INTERPOLATION IS DRY OR INACTIVE (OBS2BAS7SE)

 INTERPOLATION FOR HEAD OBS# 1743, ID 2618-66-28   CHANGED BECAUSE AT LEAST ONE
 NEIGHBORING CELL REQUIRED FOR INTERPOLATION IS DRY OR INACTIVE (OBS2BAS7SE)

 INTERPOLATION FOR HEAD OBS# 1834, ID 1908-66-18   CHANGED BECAUSE AT LEAST ONE
 NEIGHBORING CELL REQUIRED FOR INTERPOLATION IS DRY OR INACTIVE (OBS2BAS7SE)

 INTERPOLATION FOR HEAD OBS# 1869, ID 2606-66-20   CHANGED BECAUSE AT LEAST ONE
 NEIGHBORING CELL REQUIRED FOR INTERPOLATION IS DRY OR INACTIVE (OBS2BAS7SE)

 INTERPOLATION FOR HEAD OBS# 2526, ID 2243-66-19   CHANGED BECAUSE AT LEAST ONE
 NEIGHBORING CELL REQUIRED FOR INTERPOLATION IS DRY OR INACTIVE (OBS2BAS7SE)

 INTERPOLATION FOR HEAD OBS# 3196, ID 2443-66-24   CHANGED BECAUSE AT LEAST ONE
 NEIGHBORING CELL REQUIRED FOR INTERPOLATION IS DRY OR INACTIVE (OBS2BAS7SE)

 INTERPOLATION FOR HEAD OBS# 3771, ID 1405-66-13   CHANGED BECAUSE AT LEAST ONE
 NEIGHBORING CELL REQUIRED FOR INTERPOLATION IS DRY OR INACTIVE (OBS2BAS7SE)

 INTERPOLATION FOR HEAD OBS# 5399, ID 1705-66-25   CHANGED BECAUSE AT LEAST ONE
 NEIGHBORING CELL REQUIRED FOR INTERPOLATION IS DRY OR INACTIVE (OBS2BAS7SE)

 INTERPOLATION FOR HEAD OBS# 6262, ID 987-66-20    CHANGED BECAUSE AT LEAST ONE
 NEIGHBORING CELL REQUIRED FOR INTERPOLATION IS DRY OR INACTIVE (OBS2BAS7SE)

 HEAD WILL BE SAVED ON UNIT   31 AT END OF TIME STEP   12, STRESS PERIOD   65
1
  VOLUMETRIC BUDGET FOR ENTIRE MODEL AT END OF TIME STEP   12, STRESS PERIOD  65
  ------------------------------------------------------------------------------

     CUMULATIVE VOLUMES      L**3       RATES FOR THIS TIME STEP      L**3/T
     ------------------                 ------------------------

           IN:                                      IN:
           ---                                      ---
             STORAGE = 72386043904.0000               STORAGE =     2395673.0000
       CONSTANT HEAD = 24682104832.0000         CONSTANT HEAD =     1039088.5000
               WELLS =   324179520.0000                 WELLS =           0.0000
                  ET =           0.0000                    ET =           0.0000
            RECHARGE =496796401664.0000              RECHARGE =    27881394.0000

            TOTAL IN =594188697600.0000              TOTAL IN =    31316156.0000

          OUT:                                     OUT:
          ----                                     ----
             STORAGE =165186076672.0000               STORAGE =    13137602.0000
       CONSTANT HEAD =162198257664.0000         CONSTANT HEAD =     7001963.0000
               WELLS =   996326848.0000                 WELLS =       64717.0000
                  ET =265808773120.0000                    ET =    11111896.0000
            RECHARGE =           0.0000              RECHARGE =           0.0000

           TOTAL OUT =594189418496.0000             TOTAL OUT =    31316176.0000

            IN - OUT =     -720896.0000              IN - OUT =         -20.0000

 PERCENT DISCREPANCY =          -0.00     PERCENT DISCREPANCY =          -0.00






         TIME SUMMARY AT END OF TIME STEP   12 IN STRESS PERIOD   65
                    SECONDS     MINUTES      HOURS       DAYS        YEARS
                    -----------------------------------------------------------
   TIME STEP LENGTH 2.63520E+06  43920.      732.00      30.500     8.35044E-02
 STRESS PERIOD TIME 3.16224E+07 5.27040E+05  8784.0      366.00      1.0021    
         TOTAL TIME 2.05130E+09 3.41884E+07 5.69806E+05  23742.      65.002    
1
1
                            STRESS PERIOD NO.   66, LENGTH =   365.0000    
                            -----------------------------------------------

                              NUMBER OF TIME STEPS =    12

                               MULTIPLIER FOR DELT =     1.000

                            INITIAL TIME STEP SIZE =   30.41667    

 WELL NO.  LAYER   ROW   COL   STRESS RATE         
 --------------------------------------------------
      1      1    101     62     -0.2314E+05

      1 WELL 

 REUSING SURF FROM LAST STRESS PERIOD

 REUSING EVTR FROM LAST STRESS PERIOD

 REUSING EXDP FROM LAST STRESS PERIOD



                           RECHARGE
 READING ON UNIT   16 WITH FORMAT: (15F5.0)            


     63 TIME-VARIANT SPECIFIED-HEAD CELLS

 SOLVING FOR HEAD 
                                                   Max.-Head-Change                        Max.-Flux-Residual
  Residual-Control   Outer-Iter.   Inner-Iter.     Column Row Layer    Max.-Head-Change    Column Row Layer    Max.-Flux-Residual            L2-New               L2-Old           Solver-Max-Delh
          0                 1          12            30   53     1       0.1652106695E+02      30   53    1       0.5787440988E+06      0.1113228289E+07      0.3435726835E+00      0.1652106695E+02
          0                 2          11            29   51     1      -0.6465701738E+01      29   51    1      -0.3574731735E+06      0.3850180217E+06      0.1113228289E+07     -0.6465701738E+01
          0                 3           7            29   51     1      -0.9511219680E-01      29   51    1      -0.5310879336E+04      0.7323313065E+04      0.3850180217E+06     -0.9511219680E-01
          0                 4           6            29   50     1       0.3921855992E-02      29   52    1       0.1301201970E+03      0.2399220964E+03      0.7323313065E+04      0.3921855992E-02

    ------------------------------------------------
       NWT REQUIRED            4 OUTER ITERATIONS 
       AND A TOTAL OF         36 INNER ITERATIONS.
    ------------------------------------------------

 NO OUTPUT CONTROL FOR STRESS PERIOD   66   TIME STEP    1

 INTERPOLATION FOR HEAD OBS# 1335, ID 2852-66-35   CHANGED BECAUSE AT LEAST ONE
 NEIGHBORING CELL REQUIRED FOR INTERPOLATION IS DRY OR INACTIVE (OBS2BAS7SE)

 INTERPOLATION FOR HEAD OBS# 1404, ID 2840-66-32   CHANGED BECAUSE AT LEAST ONE
 NEIGHBORING CELL REQUIRED FOR INTERPOLATION IS DRY OR INACTIVE (OBS2BAS7SE)

 INTERPOLATION FOR HEAD OBS# 1405, ID 2827-66-32   CHANGED BECAUSE AT LEAST ONE
 NEIGHBORING CELL REQUIRED FOR INTERPOLATION IS DRY OR INACTIVE (OBS2BAS7SE)

 INTERPOLATION FOR HEAD OBS# 1658, ID 2303-66-47   CHANGED BECAUSE AT LEAST ONE
 NEIGHBORING CELL REQUIRED FOR INTERPOLATION IS DRY OR INACTIVE (OBS2BAS7SE)

 INTERPOLATION FOR HEAD OBS# 3608, ID 1370-66-56   CHANGED BECAUSE AT LEAST ONE
 NEIGHBORING CELL REQUIRED FOR INTERPOLATION IS DRY OR INACTIVE (OBS2BAS7SE)

 SOLVING FOR HEAD 
                                                   Max.-Head-Change                        Max.-Flux-Residual
  Residual-Control   Outer-Iter.   Inner-Iter.     Column Row Layer    Max.-Head-Change    Column Row Layer    Max.-Flux-Residual            L2-New               L2-Old           Solver-Max-Delh
          0                 1          12            30   53     1       0.9610183584E+01      30   53    1       0.3070710571E+06      0.7896852544E+06      0.2399220964E+03      0.9610183584E+01
          0                 2          11            65    5     2      -0.1266684305E+02      30   53    1      -0.3289370460E+05      0.8159808176E+05      0.7896852544E+06     -0.1266684305E+02
          0                 3           6            65    5     2       0.6924783054E+00      65    5    2       0.4243969783E+03      0.6704679814E+03      0.8159808176E+05      0.6924783054E+00
          0                 4           3            65    5     2       0.2900474953E-01      65    5    2       0.1755473653E+02      0.1956712786E+02      0.6704679814E+03      0.2900474953E-01
          0                 5           2            65    5     2       0.1211662879E-02      65    5    2       0.7338160991E+00      0.9247812453E+00      0.1956712786E+02      0.1211662879E-02

    ------------------------------------------------
       NWT REQUIRED            5 OUTER ITERATIONS 
       AND A TOTAL OF         34 INNER ITERATIONS.
    ------------------------------------------------

 NO OUTPUT CONTROL FOR STRESS PERIOD   66   TIME STEP    2

 INTERPOLATION FOR HEAD OBS# 7529, ID 269-66-61    CHANGED BECAUSE AT LEAST ONE
 NEIGHBORING CELL REQUIRED FOR INTERPOLATION IS DRY OR INACTIVE (OBS2BAS7SE)

 SOLVING FOR HEAD 
                                                   Max.-Head-Change                        Max.-Flux-Residual
  Residual-Control   Outer-Iter.   Inner-Iter.     Column Row Layer    Max.-Head-Change    Column Row Layer    Max.-Flux-Residual            L2-New               L2-Old           Solver-Max-Delh
          0                 1          12            65    5     2      -0.8400387483E+01      30   53    1       0.1795519410E+06      0.6867078289E+06      0.9247812453E+00     -0.8400387483E+01
          0                 2          11            29   53     1      -0.1245773853E+01      30   51    2       0.5532829540E+05      0.1067308416E+06      0.6867078289E+06     -0.1245773853E+01
          0                 3           7            30   51     2      -0.9784267176E-01      30   51    2      -0.5223783858E+04      0.5925396477E+04      0.1067308416E+06     -0.9784267176E-01
          0                 4           3            65    5     2       0.6912208934E-03      28   53    1       0.2860511556E+01      0.4065131773E+01      0.5925396477E+04      0.6912208934E-03

    ------------------------------------------------
       NWT REQUIRED            4 OUTER ITERATIONS 
       AND A TOTAL OF         33 INNER ITERATIONS.
    ------------------------------------------------

 NO OUTPUT CONTROL FOR STRESS PERIOD   66   TIME STEP    3

 SOLVING FOR HEAD 
                                                   Max.-Head-Change                        Max.-Flux-Residual
  Residual-Control   Outer-Iter.   Inner-Iter.     Column Row Layer    Max.-Head-Change    Column Row Layer    Max.-Flux-Residual            L2-New               L2-Old           Solver-Max-Delh
          0                 1          12            29   51     2       0.5286124076E+01      30   53    1       0.1150238341E+06      0.6341617434E+06      0.4065131773E+01      0.5286124076E+01
          0                 2          11            73   14     2       0.5521937731E+00      73   14    2       0.1906000639E+05      0.6588284309E+05      0.6341617434E+06      0.5521937731E+00
          0                 3           6            80   45     2      -0.4661740267E-02      80   45    2      -0.1890968547E+02      0.4249425521E+02      0.6588284309E+05     -0.4661740267E-02

    ------------------------------------------------
       NWT REQUIRED            3 OUTER ITERATIONS 
       AND A TOTAL OF         29 INNER ITERATIONS.
    ------------------------------------------------

 NO OUTPUT CONTROL FOR STRESS PERIOD   66   TIME STEP    4

 SOLVING FOR HEAD 
                                                   Max.-Head-Change                        Max.-Flux-Residual
  Residual-Control   Outer-Iter.   Inner-Iter.     Column Row Layer    Max.-Head-Change    Column Row Layer    Max.-Flux-Residual            L2-New               L2-Old           Solver-Max-Delh
          0                 1          12            29   53     2       0.4903350743E+01      30   51    1       0.9390625774E+05      0.6081683831E+06      0.4249425521E+02      0.4903350743E+01
          0                 2          11            29   53     2      -0.4506032352E+00      30   51    1      -0.9634994814E+04      0.6099843240E+05      0.6081683831E+06     -0.4506032352E+00
          0                 3           7            19   33     2       0.6047969358E-02      19   33    2       0.2774199526E+03      0.2967680278E+03      0.6099843240E+05      0.6047969358E-02

    ------------------------------------------------
       NWT REQUIRED            3 OUTER ITERATIONS 
       AND A TOTAL OF         30 INNER ITERATIONS.
    ------------------------------------------------

 NO OUTPUT CONTROL FOR STRESS PERIOD   66   TIME STEP    5

 SOLVING FOR HEAD 
                                                   Max.-Head-Change                        Max.-Flux-Residual
  Residual-Control   Outer-Iter.   Inner-Iter.     Column Row Layer    Max.-Head-Change    Column Row Layer    Max.-Flux-Residual            L2-New               L2-Old           Solver-Max-Delh
          0                 1          12            29   53     1       0.3661999225E+01      29   53    1       0.8295550598E+05      0.5896702911E+06      0.2967680278E+03      0.3661999225E+01
          0                 2          11            29   53     1      -0.3364150940E+00      29   53    1      -0.8527450076E+04      0.5912084394E+05      0.5896702911E+06     -0.3364150940E+00
          0                 3           7            19   33     2      -0.1034062981E-01      19   33    2      -0.2783130495E+03      0.2887897867E+03      0.5912084394E+05     -0.1034062981E-01
          0                 4           2            27   79     2       0.3857842010E-03      72   15    1      -0.1355775930E+00      0.2188648792E+00      0.2887897867E+03      0.3857842010E-03

    ------------------------------------------------
       NWT REQUIRED            4 OUTER ITERATIONS 
       AND A TOTAL OF         32 INNER ITERATIONS.
    ------------------------------------------------

 NO OUTPUT CONTROL FOR STRESS PERIOD   66   TIME STEP    6

 SOLVING FOR HEAD 
                                                   Max.-Head-Change                        Max.-Flux-Residual
  Residual-Control   Outer-Iter.   Inner-Iter.     Column Row Layer    Max.-Head-Change    Column Row Layer    Max.-Flux-Residual            L2-New               L2-Old           Solver-Max-Delh
          0                 1          12            30   51     1       0.3177779296E+01      29   53    1       0.6858780093E+05      0.5726337988E+06      0.2188648792E+00      0.3177779296E+01
          0                 2          11            30   51     1      -0.2905758837E+00      29   53    1      -0.6985886253E+04      0.5732092439E+05      0.5726337988E+06     -0.2905758837E+00
          0                 3           7            16   22     2       0.1012828438E-01      16   22    2       0.6727984452E+03      0.6737927226E+03      0.5732092439E+05      0.1012828438E-01
          0                 4           6            16   22     2       0.9115436838E-03      16   22    2       0.6054432534E+02      0.6055074895E+02      0.6737927226E+03      0.9115436838E-03

    ------------------------------------------------
       NWT REQUIRED            4 OUTER ITERATIONS 
       AND A TOTAL OF         36 INNER ITERATIONS.
    ------------------------------------------------

 NO OUTPUT CONTROL FOR STRESS PERIOD   66   TIME STEP    7

 SOLVING FOR HEAD 
                                                   Max.-Head-Change                        Max.-Flux-Residual
  Residual-Control   Outer-Iter.   Inner-Iter.     Column Row Layer    Max.-Head-Change    Column Row Layer    Max.-Flux-Residual            L2-New               L2-Old           Solver-Max-Delh
          0                 1          12            30   51     1       0.2834602637E+01      28   52    2       0.6064895733E+05      0.5592822394E+06      0.6055074895E+02      0.2834602637E+01
          0                 2          11            30   51     1      -0.2587467977E+00      25   58    2      -0.1650388225E+05      0.5951276208E+05      0.5592822394E+06     -0.2587467977E+00
          0                 3           7            16   22     2      -0.1275537148E-01      16   22    2      -0.4753642882E+03      0.4930941614E+03      0.5951276208E+05     -0.1275537148E-01
          0                 4           2            27   79     2       0.3803108432E-03      27   79    2       0.2912765901E-01      0.1251083074E+00      0.4930941614E+03      0.3803108432E-03

    ------------------------------------------------
       NWT REQUIRED            4 OUTER ITERATIONS 
       AND A TOTAL OF         32 INNER ITERATIONS.
    ------------------------------------------------

 NO OUTPUT CONTROL FOR STRESS PERIOD   66   TIME STEP    8

 SOLVING FOR HEAD 
                                                   Max.-Head-Change                        Max.-Flux-Residual
  Residual-Control   Outer-Iter.   Inner-Iter.     Column Row Layer    Max.-Head-Change    Column Row Layer    Max.-Flux-Residual            L2-New               L2-Old           Solver-Max-Delh
          0                 1          12            30   51     1       0.2569457554E+01      33   51    2       0.5923331905E+05      0.5481756722E+06      0.1251083074E+00      0.2569457554E+01
          0                 2          11            28   52     1      -0.7026670861E+00      28   52    1      -0.2915273772E+05      0.6211089667E+05      0.5481756722E+06     -0.7026670861E+00
          0                 3           6            92   67     1      -0.7748485898E-01      92   67    1      -0.3964367679E+04      0.3964719584E+04      0.6211089667E+05     -0.7748485898E-01
          0                 4           2            92   67     1      -0.6975374409E-02      92   67    1      -0.3568346234E+03      0.3568363132E+03      0.3964719584E+04     -0.6975374409E-02

    ------------------------------------------------
       NWT REQUIRED            4 OUTER ITERATIONS 
       AND A TOTAL OF         31 INNER ITERATIONS.
    ------------------------------------------------

 NO OUTPUT CONTROL FOR STRESS PERIOD   66   TIME STEP    9

 SOLVING FOR HEAD 
                                                   Max.-Head-Change                        Max.-Flux-Residual
  Residual-Control   Outer-Iter.   Inner-Iter.     Column Row Layer    Max.-Head-Change    Column Row Layer    Max.-Flux-Residual            L2-New               L2-Old           Solver-Max-Delh
          0                 1          12            30   51     1       0.2343796526E+01      33   51    2       0.5796919308E+05      0.5381528912E+06      0.3568363132E+03      0.2343796526E+01
          0                 2          11            92   67     1      -0.2776931726E+01      28   52    2       0.2596720264E+05      0.6192779362E+05      0.5381528912E+06     -0.2776931726E+01
          0                 3           7            92   67     1       0.2307333340E+00      28   52    2      -0.2267083956E+04      0.2821774913E+04      0.6192779362E+05      0.2307333340E+00
          0                 4           2            92   67     1       0.1802362895E-02      92   67    1       0.9527716510E+01      0.9977087834E+01      0.2821774913E+04      0.1802362895E-02

    ------------------------------------------------
       NWT REQUIRED            4 OUTER ITERATIONS 
       AND A TOTAL OF         32 INNER ITERATIONS.
    ------------------------------------------------

 NO OUTPUT CONTROL FOR STRESS PERIOD   66   TIME STEP   10

 SOLVING FOR HEAD 
                                                   Max.-Head-Change                        Max.-Flux-Residual
  Residual-Control   Outer-Iter.   Inner-Iter.     Column Row Layer    Max.-Head-Change    Column Row Layer    Max.-Flux-Residual            L2-New               L2-Old           Solver-Max-Delh
          0                 1          12            28   52     2       0.2342451254E+01      33   51    2       0.5649378962E+05      0.5305316328E+06      0.9977087834E+01      0.2342451254E+01
          0                 2          11            28   52     2      -0.2128296519E+00      33   51    2      -0.5656452291E+04      0.5310745835E+05      0.5305316328E+06     -0.2128296519E+00
          0                 3           6            27   79     2       0.1467407298E-02      29   54    1      -0.4930809140E+01      0.3329820669E+02      0.5310745835E+05      0.1467407298E-02

    ------------------------------------------------
       NWT REQUIRED            3 OUTER ITERATIONS 
       AND A TOTAL OF         29 INNER ITERATIONS.
    ------------------------------------------------

 NO OUTPUT CONTROL FOR STRESS PERIOD   66   TIME STEP   11

 SOLVING FOR HEAD 
                                                   Max.-Head-Change                        Max.-Flux-Residual
  Residual-Control   Outer-Iter.   Inner-Iter.     Column Row Layer    Max.-Head-Change    Column Row Layer    Max.-Flux-Residual            L2-New               L2-Old           Solver-Max-Delh
          0                 1          12            33   51     2       0.2129449912E+01      33   51    2       0.5490085458E+05      0.5243133761E+06      0.3329820669E+02      0.2129449912E+01
          0                 2          11            33   51     2      -0.1936893428E+00      33   51    2      -0.5497515524E+04      0.5244878353E+05      0.5243133761E+06     -0.1936893428E+00
          0                 3           6            40   21     3      -0.6852218717E-02      40   21    3      -0.7919987445E+02      0.9718847949E+02      0.5244878353E+05     -0.6852218717E-02

    ------------------------------------------------
       NWT REQUIRED            3 OUTER ITERATIONS 
       AND A TOTAL OF         29 INNER ITERATIONS.
    ------------------------------------------------

 OUTPUT CONTROL FOR STRESS PERIOD   66   TIME STEP   12
    SAVE BUDGET
 UBDSV1 SAVING "         STORAGE" ON UNIT  39 AT TIME STEP 12, STRESS PERIOD  66
 UBDSV2 SAVING "   CONSTANT HEAD" ON UNIT  39 AT TIME STEP 12, STRESS PERIOD  66
 UBDSV1 SAVING "FLOW RIGHT FACE " ON UNIT  39 AT TIME STEP 12, STRESS PERIOD  66
 UBDSV1 SAVING "FLOW FRONT FACE " ON UNIT  39 AT TIME STEP 12, STRESS PERIOD  66
 UBDSV1 SAVING "FLOW LOWER FACE " ON UNIT  39 AT TIME STEP 12, STRESS PERIOD  66
 UBDSV3 SAVING "              ET" ON UNIT  39 AT TIME STEP 12, STRESS PERIOD  66
 UBDSV3 SAVING "        RECHARGE" ON UNIT  39 AT TIME STEP 12, STRESS PERIOD  66
1
  VOLUMETRIC BUDGET FOR ENTIRE MODEL AT END OF TIME STEP   12, STRESS PERIOD  66
  ------------------------------------------------------------------------------

     CUMULATIVE VOLUMES      L**3       RATES FOR THIS TIME STEP      L**3/T
     ------------------                 ------------------------

           IN:                                      IN:
           ---                                      ---
             STORAGE = 72993742848.0000               STORAGE =     1407645.5000
       CONSTANT HEAD = 25052209152.0000         CONSTANT HEAD =      997064.5625
               WELLS =   324179520.0000                 WELLS =           0.0000
                  ET =           0.0000                    ET =           0.0000
            RECHARGE =509429645312.0000              RECHARGE =    34611836.0000

            TOTAL IN =607799803904.0000              TOTAL IN =    37016544.0000

          OUT:                                     OUT:
          ----                                     ----
             STORAGE =171843780608.0000               STORAGE =    17552150.0000
       CONSTANT HEAD =164777902080.0000         CONSTANT HEAD =     7093563.5000
               WELLS =  1004771008.0000                 WELLS =       23135.0000
                  ET =270174126080.0000                    ET =    12347725.0000
            RECHARGE =           0.0000              RECHARGE =           0.0000

           TOTAL OUT =607800524800.0000             TOTAL OUT =    37016572.0000

            IN - OUT =     -720896.0000              IN - OUT =         -28.0000

 PERCENT DISCREPANCY =          -0.00     PERCENT DISCREPANCY =          -0.00






         TIME SUMMARY AT END OF TIME STEP   12 IN STRESS PERIOD   66
                    SECONDS     MINUTES      HOURS       DAYS        YEARS
                    -----------------------------------------------------------
   TIME STEP LENGTH 2.62800E+06  43800.      730.00      30.417     8.32763E-02
 STRESS PERIOD TIME 3.15360E+07 5.25600E+05  8760.0      365.00     0.99932    
         TOTAL TIME 2.08284E+09 3.47140E+07 5.78566E+05  24107.      66.001    
1
1
                            STRESS PERIOD NO.   67, LENGTH =   365.0000    
                            -----------------------------------------------

                              NUMBER OF TIME STEPS =    12

                               MULTIPLIER FOR DELT =     1.000

                            INITIAL TIME STEP SIZE =   30.41667    

 WELL NO.  LAYER   ROW   COL   STRESS RATE         
 --------------------------------------------------
      1      2    102     59     -0.2627E+05

      1 WELL 

 REUSING SURF FROM LAST STRESS PERIOD

 REUSING EVTR FROM LAST STRESS PERIOD

 REUSING EXDP FROM LAST STRESS PERIOD



                           RECHARGE
 READING ON UNIT   16 WITH FORMAT: (15F5.0)            


     63 TIME-VARIANT SPECIFIED-HEAD CELLS

 SOLVING FOR HEAD 
                                                   Max.-Head-Change                        Max.-Flux-Residual
  Residual-Control   Outer-Iter.   Inner-Iter.     Column Row Layer    Max.-Head-Change    Column Row Layer    Max.-Flux-Residual            L2-New               L2-Old           Solver-Max-Delh
          0                 1          12            92   77     2       0.7294818116E+02      30   53    1       0.2678713006E+06      0.8243552308E+06      0.9718847949E+02      0.7294818116E+02
          0                 2          11            65    5     2      -0.1157663625E+02      65    5    2      -0.3035779333E+06      0.4344011456E+06      0.8243552308E+06     -0.1157663625E+02
          0                 3           6            66    5     2       0.7730507353E+00      65    5    2      -0.1641828474E+04      0.2056123420E+04      0.4344011456E+06      0.7730507353E+00
          0                 4           3            66    5     2       0.1138041038E+00      65    4    2       0.7256098621E+02      0.1089165159E+03      0.2056123420E+04      0.1138041038E+00
          0                 5           2            66    5     2       0.1668679858E-01      66    5    2       0.7415718713E+01      0.1219002406E+02      0.1089165159E+03      0.1668679858E-01
          0                 6           2            66    5     2       0.2445204262E-02      66    5    2       0.1086546455E+01      0.1490855886E+01      0.1219002406E+02      0.2445204262E-02

    ------------------------------------------------
       NWT REQUIRED            6 OUTER ITERATIONS 
       AND A TOTAL OF         36 INNER ITERATIONS.
    ------------------------------------------------

 NO OUTPUT CONTROL FOR STRESS PERIOD   67   TIME STEP    1

 SOLVING FOR HEAD 
                                                   Max.-Head-Change                        Max.-Flux-Residual
  Residual-Control   Outer-Iter.   Inner-Iter.     Column Row Layer    Max.-Head-Change    Column Row Layer    Max.-Flux-Residual            L2-New               L2-Old           Solver-Max-Delh
          0                 1          12            30   53     1       0.4800736155E+01      30   53    1       0.1448179788E+06      0.6966498814E+06      0.1490855886E+01      0.4800736155E+01
          0                 2          11            28   51     2       0.4902698854E+00      28   51    2       0.2678537725E+05      0.7572362950E+05      0.6966498814E+06      0.4902698854E+00
          0                 3           7            28   51     2      -0.4461616774E-01      28   51    2      -0.2268412176E+04      0.2367041402E+04      0.7572362950E+05     -0.4461616774E-01
          0                 4           2            27   79     2       0.3769843148E-03      27   51    1       0.1237742305E+00      0.2432401835E+00      0.2367041402E+04      0.3769843148E-03

    ------------------------------------------------
       NWT REQUIRED            4 OUTER ITERATIONS 
       AND A TOTAL OF         32 INNER ITERATIONS.
    ------------------------------------------------

 NO OUTPUT CONTROL FOR STRESS PERIOD   67   TIME STEP    2

 SOLVING FOR HEAD 
                                                   Max.-Head-Change                        Max.-Flux-Residual
  Residual-Control   Outer-Iter.   Inner-Iter.     Column Row Layer    Max.-Head-Change    Column Row Layer    Max.-Flux-Residual            L2-New               L2-Old           Solver-Max-Delh
          0                 1          12            30   52     1       0.3458618306E+01      30   53    1       0.9007032789E+05      0.6561933256E+06      0.2432401835E+00      0.3458618306E+01
          0                 2          11            33   39     3       0.4301481038E+00      30   53    1      -0.9075910881E+04      0.6608633576E+05      0.6561933256E+06      0.4301481038E+00
          0                 3           7            33   39     3      -0.3910160094E-01      16   25    2      -0.3040489506E+03      0.4291071426E+03      0.6608633576E+05     -0.3910160094E-01
          0                 4           2            27   79     2       0.3782574388E-03      29   54    1       0.9734193981E-01      0.2079472350E+00      0.4291071426E+03      0.3782574388E-03

    ------------------------------------------------
       NWT REQUIRED            4 OUTER ITERATIONS 
       AND A TOTAL OF         32 INNER ITERATIONS.
    ------------------------------------------------

 NO OUTPUT CONTROL FOR STRESS PERIOD   67   TIME STEP    3

 SOLVING FOR HEAD 
                                                   Max.-Head-Change                        Max.-Flux-Residual
  Residual-Control   Outer-Iter.   Inner-Iter.     Column Row Layer    Max.-Head-Change    Column Row Layer    Max.-Flux-Residual            L2-New               L2-Old           Solver-Max-Delh
          0                 1          12            30   51     1       0.2900101784E+01      30   52    1       0.6489065498E+05      0.6335419988E+06      0.2079472350E+00      0.2900101784E+01
          0                 2          11            28   50     1      -0.9393719521E+00      28   50    1      -0.3879195561E+05      0.7523147973E+05      0.6335419988E+06     -0.9393719521E+00
          0                 3           7            21   52     3      -0.2635000370E-01      21   52    3      -0.6160665271E+03      0.8630860855E+03      0.7523147973E+05     -0.2635000370E-01
          0                 4           2            27   79     2       0.3779696790E-03      28   49    1       0.1397355244E+01      0.2044425632E+01      0.8630860855E+03      0.3779696790E-03

    ------------------------------------------------
       NWT REQUIRED            4 OUTER ITERATIONS 
       AND A TOTAL OF         32 INNER ITERATIONS.
    ------------------------------------------------

 NO OUTPUT CONTROL FOR STRESS PERIOD   67   TIME STEP    4

 SOLVING FOR HEAD 
                                                   Max.-Head-Change                        Max.-Flux-Residual
  Residual-Control   Outer-Iter.   Inner-Iter.     Column Row Layer    Max.-Head-Change    Column Row Layer    Max.-Flux-Residual            L2-New               L2-Old           Solver-Max-Delh
          0                 1          12            29   54     2       0.3023861593E+01      70   19    1       0.5883470393E+05      0.6174576783E+06      0.2044425632E+01      0.3023861593E+01
          0                 2          11            29   54     2      -0.2547335364E+00      28   53    2       0.1575016388E+05      0.6368978786E+05      0.6174576783E+06     -0.2547335364E+00
          0                 3           7            28   53     2      -0.2106994347E-01      28   53    2      -0.1105032106E+04      0.1151581030E+04      0.6368978786E+05     -0.2106994347E-01
          0                 4           2            27   79     2       0.3776425900E-03      91   77    2      -0.7789497671E-01      0.1662873312E+00      0.1151581030E+04      0.3776425900E-03

    ------------------------------------------------
       NWT REQUIRED            4 OUTER ITERATIONS 
       AND A TOTAL OF         32 INNER ITERATIONS.
    ------------------------------------------------

 NO OUTPUT CONTROL FOR STRESS PERIOD   67   TIME STEP    5

 SOLVING FOR HEAD 
                                                   Max.-Head-Change                        Max.-Flux-Residual
  Residual-Control   Outer-Iter.   Inner-Iter.     Column Row Layer    Max.-Head-Change    Column Row Layer    Max.-Flux-Residual            L2-New               L2-Old           Solver-Max-Delh
          0                 1          12            28   53     2       0.2555786309E+01      29   54    1       0.5704561043E+05      0.6060399001E+06      0.1662873312E+00      0.2555786309E+01
          0                 2          11            73   14     2       0.1030111986E+01      30   55    1      -0.4374828172E+05      0.8308347427E+05      0.6060399001E+06      0.1030111986E+01
          0                 3           7            73   14     2      -0.9359736072E-01      32   53    2      -0.2748410946E+04      0.3131216385E+04      0.8308347427E+05     -0.9359736072E-01
          0                 4           3            27   79     2       0.3773322102E-03      70   46    1       0.3993446402E+01      0.4702603837E+01      0.3131216385E+04      0.3773322102E-03

    ------------------------------------------------
       NWT REQUIRED            4 OUTER ITERATIONS 
       AND A TOTAL OF         33 INNER ITERATIONS.
    ------------------------------------------------

 NO OUTPUT CONTROL FOR STRESS PERIOD   67   TIME STEP    6

 SOLVING FOR HEAD 
                                                   Max.-Head-Change                        Max.-Flux-Residual
  Residual-Control   Outer-Iter.   Inner-Iter.     Column Row Layer    Max.-Head-Change    Column Row Layer    Max.-Flux-Residual            L2-New               L2-Old           Solver-Max-Delh
          0                 1          12            32   53     2       0.2583720170E+01      33   51    2       0.5462145315E+05      0.5964395713E+06      0.4702603837E+01      0.2583720170E+01
          0                 2          11            27   52     1      -0.5340598382E+00      27   52    1      -0.3293130371E+05      0.7400462157E+05      0.5964395713E+06     -0.5340598382E+00
          0                 3           6            62   27     2      -0.1409683293E-01      62   27    2      -0.1887983702E+03      0.2060623962E+03      0.7400462157E+05     -0.1409683293E-01
          0                 4           2            27   79     2       0.3770652239E-03      68   47    1       0.8840178847E+00      0.9653798586E+00      0.2060623962E+03      0.3770652239E-03

    ------------------------------------------------
       NWT REQUIRED            4 OUTER ITERATIONS 
       AND A TOTAL OF         31 INNER ITERATIONS.
    ------------------------------------------------

 NO OUTPUT CONTROL FOR STRESS PERIOD   67   TIME STEP    7

 SOLVING FOR HEAD 
                                                   Max.-Head-Change                        Max.-Flux-Residual
  Residual-Control   Outer-Iter.   Inner-Iter.     Column Row Layer    Max.-Head-Change    Column Row Layer    Max.-Flux-Residual            L2-New               L2-Old           Solver-Max-Delh
          0                 1          12            27   52     2       0.2144887448E+01      33   52    2       0.5397922768E+05      0.5875932778E+06      0.9653798586E+00      0.2144887448E+01
          0                 2          11            29   50     1      -0.2659079311E+00      28   50    2       0.1116713621E+05      0.6116862741E+05      0.5875932778E+06     -0.2659079311E+00
          0                 3           6            31   55     2      -0.9722907683E-02      28   50    2      -0.6647087593E+03      0.9227991038E+03      0.6116862741E+05     -0.9722907683E-02

    ------------------------------------------------
       NWT REQUIRED            3 OUTER ITERATIONS 
       AND A TOTAL OF         29 INNER ITERATIONS.
    ------------------------------------------------

 NO OUTPUT CONTROL FOR STRESS PERIOD   67   TIME STEP    8

 SOLVING FOR HEAD 
                                                   Max.-Head-Change                        Max.-Flux-Residual
  Residual-Control   Outer-Iter.   Inner-Iter.     Column Row Layer    Max.-Head-Change    Column Row Layer    Max.-Flux-Residual            L2-New               L2-Old           Solver-Max-Delh
          0                 1          12            33   51     2       0.2048843485E+01      33   51    2       0.5265994163E+05      0.5800602514E+06      0.1570958873E+00      0.2048843485E+01
          0                 2          11            30   50     1      -0.4251973623E+00      30   50    1      -0.1635522399E+05      0.6040476808E+05      0.5800602514E+06     -0.4251973623E+00
          0                 3           6            66   24     2       0.1623259249E-01      66   24    2       0.1055791263E+04      0.1056472971E+04      0.6040476808E+05      0.1623259249E-01
          0                 4           3            66   24     2       0.1460982586E-02      66   24    2       0.9501420132E+02      0.9502754648E+02      0.1056472971E+04      0.1460982586E-02

    ------------------------------------------------
       NWT REQUIRED            4 OUTER ITERATIONS 
       AND A TOTAL OF         32 INNER ITERATIONS.
    ------------------------------------------------

 NO OUTPUT CONTROL FOR STRESS PERIOD   67   TIME STEP    9

 SOLVING FOR HEAD 
                                                   Max.-Head-Change                        Max.-Flux-Residual
  Residual-Control   Outer-Iter.   Inner-Iter.     Column Row Layer    Max.-Head-Change    Column Row Layer    Max.-Flux-Residual            L2-New               L2-Old           Solver-Max-Delh
          0                 1          12            30   55     2       0.2327514310E+01      33   51    2       0.5121062710E+05      0.5737020305E+06      0.9502754648E+02      0.2327514310E+01
          0                 2          11            66   24     2       0.3143421406E+00      66   24    2       0.7442607242E+04      0.5823650874E+05      0.5737020305E+06      0.3143421406E+00
          0                 3           6            66   24     2      -0.2858271241E-01      66   24    2      -0.7337229258E+03      0.7450256552E+03      0.5823650874E+05     -0.2858271241E-01
          0                 4           3            27   79     2       0.3761628526E-03      32   45    2      -0.2546746470E+00      0.3015296219E+00      0.7450256552E+03      0.3761628526E-03

    ------------------------------------------------
       NWT REQUIRED            4 OUTER ITERATIONS 
       AND A TOTAL OF         32 INNER ITERATIONS.
    ------------------------------------------------

 NO OUTPUT CONTROL FOR STRESS PERIOD   67   TIME STEP   10

 SOLVING FOR HEAD 
                                                   Max.-Head-Change                        Max.-Flux-Residual
  Residual-Control   Outer-Iter.   Inner-Iter.     Column Row Layer    Max.-Head-Change    Column Row Layer    Max.-Flux-Residual            L2-New               L2-Old           Solver-Max-Delh
          0                 1          12            29   50     2       0.2022465898E+01      33   51    2       0.4965597836E+05      0.5682571693E+06      0.3015296219E+00      0.2022465898E+01
          0                 2          11            32   45     3       0.7802263347E+00      32   45    2      -0.2420892394E+05      0.6410336323E+05      0.5682571693E+06      0.7802263347E+00
          0                 3           7            32   45     3      -0.7117031439E-01      23   54    3       0.2657545278E+04      0.2921564473E+04      0.6410336323E+05     -0.7117031439E-01
          0                 4           5            23   54     3       0.3573595278E-02      23   54    3       0.2391265866E+03      0.2391341514E+03      0.2921564473E+04      0.3573595278E-02

    ------------------------------------------------
       NWT REQUIRED            4 OUTER ITERATIONS 
       AND A TOTAL OF         35 INNER ITERATIONS.
    ------------------------------------------------

 NO OUTPUT CONTROL FOR STRESS PERIOD   67   TIME STEP   11

 SOLVING FOR HEAD 
                                                   Max.-Head-Change                        Max.-Flux-Residual
  Residual-Control   Outer-Iter.   Inner-Iter.     Column Row Layer    Max.-Head-Change    Column Row Layer    Max.-Flux-Residual            L2-New               L2-Old           Solver-Max-Delh
          0                 1          12            33   51     2       0.1871864407E+01      33   51    2       0.4821891716E+05      0.5634897523E+06      0.2391341514E+03      0.1871864407E+01
          0                 2          11            23   54     3       0.4916139743E+00      28   47    1      -0.2222735393E+05      0.6588481643E+05      0.5634897523E+06      0.4916139743E+00
          0                 3           7            23   54     3      -0.4295952550E-01      23   54    3      -0.1889176576E+04      0.1974865579E+04      0.6588481643E+05     -0.4295952550E-01
          0                 4           3            27   79     2       0.3755131984E-03      24   54    3       0.9269154146E+00      0.1535697015E+01      0.1974865579E+04      0.3755131984E-03

    ------------------------------------------------
       NWT REQUIRED            4 OUTER ITERATIONS 
       AND A TOTAL OF         33 INNER ITERATIONS.
    ------------------------------------------------

 OUTPUT CONTROL FOR STRESS PERIOD   67   TIME STEP   12
    SAVE BUDGET
 UBDSV1 SAVING "         STORAGE" ON UNIT  39 AT TIME STEP 12, STRESS PERIOD  67
 UBDSV2 SAVING "   CONSTANT HEAD" ON UNIT  39 AT TIME STEP 12, STRESS PERIOD  67
 UBDSV1 SAVING "FLOW RIGHT FACE " ON UNIT  39 AT TIME STEP 12, STRESS PERIOD  67
 UBDSV1 SAVING "FLOW FRONT FACE " ON UNIT  39 AT TIME STEP 12, STRESS PERIOD  67
 UBDSV1 SAVING "FLOW LOWER FACE " ON UNIT  39 AT TIME STEP 12, STRESS PERIOD  67
 UBDSV3 SAVING "              ET" ON UNIT  39 AT TIME STEP 12, STRESS PERIOD  67
 UBDSV3 SAVING "        RECHARGE" ON UNIT  39 AT TIME STEP 12, STRESS PERIOD  67
1
  VOLUMETRIC BUDGET FOR ENTIRE MODEL AT END OF TIME STEP   12, STRESS PERIOD  67
  ------------------------------------------------------------------------------

     CUMULATIVE VOLUMES      L**3       RATES FOR THIS TIME STEP      L**3/T
     ------------------                 ------------------------

           IN:                                      IN:
           ---                                      ---
             STORAGE = 73256058880.0000               STORAGE =      597090.8750
       CONSTANT HEAD = 25412712448.0000         CONSTANT HEAD =      978784.7500
               WELLS =   324179520.0000                 WELLS =           0.0000
                  ET =           0.0000                    ET =           0.0000
            RECHARGE =524312084480.0000              RECHARGE =    40774220.0000

            TOTAL IN =623305031680.0000              TOTAL IN =    42350096.0000

          OUT:                                     OUT:
          ----                                     ----
             STORAGE =180018921472.0000               STORAGE =    21940762.0000
       CONSTANT HEAD =167401619456.0000         CONSTANT HEAD =     7238598.0000
               WELLS =  1014360256.0000                 WELLS =       26271.0000
                  ET =274871156736.0000                    ET =    13144490.0000
            RECHARGE =           0.0000              RECHARGE =           0.0000

           TOTAL OUT =623306080256.0000             TOTAL OUT =    42350120.0000

            IN - OUT =    -1048576.0000              IN - OUT =         -24.0000

 PERCENT DISCREPANCY =          -0.00     PERCENT DISCREPANCY =          -0.00






         TIME SUMMARY AT END OF TIME STEP   12 IN STRESS PERIOD   67
                    SECONDS     MINUTES      HOURS       DAYS        YEARS
                    -----------------------------------------------------------
   TIME STEP LENGTH 2.62800E+06  43800.      730.00      30.417     8.32763E-02
 STRESS PERIOD TIME 3.15360E+07 5.25600E+05  8760.0      365.00     0.99932    
         TOTAL TIME 2.11437E+09 3.52396E+07 5.87326E+05  24472.      67.000    
1
1
                            STRESS PERIOD NO.   68, LENGTH =   365.0000    
                            -----------------------------------------------

                              NUMBER OF TIME STEPS =    12

                               MULTIPLIER FOR DELT =     1.000

                            INITIAL TIME STEP SIZE =   30.41667    

 WELL NO.  LAYER   ROW   COL   STRESS RATE         
 --------------------------------------------------
      1      1    102     62     -0.2314E+05

      1 WELL 

 REUSING SURF FROM LAST STRESS PERIOD

 REUSING EVTR FROM LAST STRESS PERIOD

 REUSING EXDP FROM LAST STRESS PERIOD



                           RECHARGE
 READING ON UNIT   16 WITH FORMAT: (15F5.0)            


     63 TIME-VARIANT SPECIFIED-HEAD CELLS

 SOLVING FOR HEAD 
                                                   Max.-Head-Change                        Max.-Flux-Residual
  Residual-Control   Outer-Iter.   Inner-Iter.     Column Row Layer    Max.-Head-Change    Column Row Layer    Max.-Flux-Residual            L2-New               L2-Old           Solver-Max-Delh
          0                 1          12            65    2     2      -0.4617202529E+02      30   53    1       0.2293867412E+06      0.7748598345E+06      0.1535697015E+01     -0.4617202529E+02
          0                 2          11            65    2     2       0.1551868507E+01      30   53    1      -0.2426425007E+05      0.7822862361E+05      0.7748598345E+06      0.1551868507E+01
          0                 3           6            65    2     2       0.8732059014E-01      80   50    1      -0.1068065923E+03      0.1958227799E+03      0.7822862361E+05      0.8732059014E-01
          0                 4           3            65    2     2       0.4922084532E-02      80   50    1      -0.8911084183E+01      0.9477998786E+01      0.1958227799E+03      0.4922084532E-02

    ------------------------------------------------
       NWT REQUIRED            4 OUTER ITERATIONS 
       AND A TOTAL OF         32 INNER ITERATIONS.
    ------------------------------------------------

 NO OUTPUT CONTROL FOR STRESS PERIOD   68   TIME STEP    1

 SOLVING FOR HEAD 
                                                   Max.-Head-Change                        Max.-Flux-Residual
  Residual-Control   Outer-Iter.   Inner-Iter.     Column Row Layer    Max.-Head-Change    Column Row Layer    Max.-Flux-Residual            L2-New               L2-Old           Solver-Max-Delh
          0                 1          12            30   53     1       0.4028291762E+01      30   53    1       0.1217679390E+06      0.6334636219E+06      0.9477998786E+01      0.4028291762E+01
          0                 2          11            27   51     1      -0.4948938180E+00      29   47    1      -0.1937812531E+05      0.7253668634E+05      0.6334636219E+06     -0.4948938180E+00
          0                 3           7            29   49     1      -0.3318603251E-01      27   53    1      -0.8252543730E+03      0.1399717463E+04      0.7253668634E+05     -0.3318603251E-01
          0                 4           4            27   51     2       0.9787511156E-03      27   51    2       0.7373104851E+02      0.7422278096E+02      0.1399717463E+04      0.9787511156E-03

    ------------------------------------------------
       NWT REQUIRED            4 OUTER ITERATIONS 
       AND A TOTAL OF         34 INNER ITERATIONS.
    ------------------------------------------------

 NO OUTPUT CONTROL FOR STRESS PERIOD   68   TIME STEP    2

 SOLVING FOR HEAD 
                                                   Max.-Head-Change                        Max.-Flux-Residual
  Residual-Control   Outer-Iter.   Inner-Iter.     Column Row Layer    Max.-Head-Change    Column Row Layer    Max.-Flux-Residual            L2-New               L2-Old           Solver-Max-Delh
          0                 1          12            30   52     1       0.2914294294E+01      30   53    1       0.7555243883E+05      0.5879939349E+06      0.7422278096E+02      0.2914294294E+01
          0                 2          11            27   51     2       0.6965672637E+00      27   53    1      -0.4125814457E+05      0.1092809058E+06      0.5879939349E+06      0.6965672637E+00
          0                 3           7            27   51     2      -0.6345513557E-01      27   51    2      -0.3032367604E+04      0.3190843387E+04      0.1092809058E+06     -0.6345513557E-01
          0                 4           2            27   79     2       0.3746495112E-03      28   49    1       0.1086201504E+01      0.2028125199E+01      0.3190843387E+04      0.3746495112E-03

    ------------------------------------------------
       NWT REQUIRED            4 OUTER ITERATIONS 
       AND A TOTAL OF         32 INNER ITERATIONS.
    ------------------------------------------------

 NO OUTPUT CONTROL FOR STRESS PERIOD   68   TIME STEP    3

 SOLVING FOR HEAD 
                                                   Max.-Head-Change                        Max.-Flux-Residual
  Residual-Control   Outer-Iter.   Inner-Iter.     Column Row Layer    Max.-Head-Change    Column Row Layer    Max.-Flux-Residual            L2-New               L2-Old           Solver-Max-Delh
          0                 1          12            29   53     1       0.2501279262E+01      30   52    1       0.5483677759E+05      0.5634252821E+06      0.2028125199E+01      0.2501279262E+01
          0                 2          11            29   53     1      -0.2282540882E+00      30   52    1      -0.5494424523E+04      0.5643991064E+05      0.5634252821E+06     -0.2282540882E+00
          0                 3           6            68   20     1      -0.3130180829E-02      25   42    2       0.1505435463E+03      0.1564350431E+03      0.5643991064E+05     -0.3130180829E-02

    ------------------------------------------------
       NWT REQUIRED            3 OUTER ITERATIONS 
       AND A TOTAL OF         29 INNER ITERATIONS.
    ------------------------------------------------

 NO OUTPUT CONTROL FOR STRESS PERIOD   68   TIME STEP    4

 SOLVING FOR HEAD 
                                                   Max.-Head-Change                        Max.-Flux-Residual
  Residual-Control   Outer-Iter.   Inner-Iter.     Column Row Layer    Max.-Head-Change    Column Row Layer    Max.-Flux-Residual            L2-New               L2-Old           Solver-Max-Delh
          0                 1          12            29   53     1       0.2235833843E+01      33   51    2       0.4946381143E+05      0.5493995899E+06      0.1564350431E+03      0.2235833843E+01
          0                 2          11            26   60     2      -0.3861513076E+00      26   60    2      -0.2270977562E+05      0.6348172159E+05      0.5493995899E+06     -0.3861513076E+00
          0                 3           7            56   78     1      -0.2766260331E-01      25   42    2      -0.4214620346E+03      0.6253047121E+03      0.6348172159E+05     -0.2766260331E-01
          0                 4           2            27   79     2       0.3788093726E-03      56   78    1      -0.7975261882E+00      0.8230295213E+00      0.6253047121E+03      0.3788093726E-03

    ------------------------------------------------
       NWT REQUIRED            4 OUTER ITERATIONS 
       AND A TOTAL OF         32 INNER ITERATIONS.
    ------------------------------------------------

 NO OUTPUT CONTROL FOR STRESS PERIOD   68   TIME STEP    5

 SOLVING FOR HEAD 
                                                   Max.-Head-Change                        Max.-Flux-Residual
  Residual-Control   Outer-Iter.   Inner-Iter.     Column Row Layer    Max.-Head-Change    Column Row Layer    Max.-Flux-Residual            L2-New               L2-Old           Solver-Max-Delh
          0                 1          12            28   53     1       0.2067649233E+01      33   51    2       0.4901780696E+05      0.5377743294E+06      0.8230295213E+00      0.2067649233E+01
          0                 2          11            56   78     1      -0.4158312573E+00      56   78    1      -0.1674381854E+05      0.5937956783E+05      0.5377743294E+06     -0.4158312573E+00
          0                 3           7            15   24     2      -0.1294349656E-01      15   24    2      -0.4535626772E+03      0.6162113342E+03      0.5937956783E+05     -0.1294349656E-01
          0                 4           2            27   79     2       0.3737529959E-03      56   77    1       0.1150417849E+00      0.2362859227E+00      0.6162113342E+03      0.3737529959E-03

    ------------------------------------------------
       NWT REQUIRED            4 OUTER ITERATIONS 
       AND A TOTAL OF         32 INNER ITERATIONS.
    ------------------------------------------------

 NO OUTPUT CONTROL FOR STRESS PERIOD   68   TIME STEP    6

 SOLVING FOR HEAD 
                                                   Max.-Head-Change                        Max.-Flux-Residual
  Residual-Control   Outer-Iter.   Inner-Iter.     Column Row Layer    Max.-Head-Change    Column Row Layer    Max.-Flux-Residual            L2-New               L2-Old           Solver-Max-Delh
          0                 1          12            28   53     1       0.1963893787E+01      33   51    2       0.4828432802E+05      0.5292787514E+06      0.2362859227E+00      0.1963893787E+01
          0                 2          11            65    6     2      -0.8189655881E+01      30   49    1      -0.1396371353E+05      0.5895291728E+05      0.5292787514E+06     -0.8189655881E+01
          0                 3           8            65    6     2       0.4101987086E+00      31   51    2      -0.8470137966E+03      0.1354043536E+04      0.5895291728E+05      0.4101987086E+00
          0                 4           3            65    6     2       0.1673624191E-01      12    6    2       0.1793219130E+02      0.2072451942E+02      0.1354043536E+04      0.1673624191E-01
          0                 5           2            65    6     2       0.6814500609E-03      12    6    2       0.1612077408E+01      0.1895813472E+01      0.2072451942E+02      0.6814500609E-03

    ------------------------------------------------
       NWT REQUIRED            5 OUTER ITERATIONS 
       AND A TOTAL OF         36 INNER ITERATIONS.
    ------------------------------------------------

 NO OUTPUT CONTROL FOR STRESS PERIOD   68   TIME STEP    7

 SOLVING FOR HEAD 
                                                   Max.-Head-Change                        Max.-Flux-Residual
  Residual-Control   Outer-Iter.   Inner-Iter.     Column Row Layer    Max.-Head-Change    Column Row Layer    Max.-Flux-Residual            L2-New               L2-Old           Solver-Max-Delh
          0                 1          12            65    6     2      -0.4686292954E+01      33   51    2       0.4783870125E+05      0.5224117921E+06      0.1895813472E+01     -0.4686292954E+01
          0                 2          11            65    3     2      -0.1513166188E+01      24   55    2      -0.1933898747E+05      0.5626862005E+05      0.5224117921E+06     -0.1513166188E+01
          0                 3           8            24   55     3       0.8572812170E-01      24   55    3       0.5714158259E+04      0.6772825153E+04      0.5626862005E+05      0.8572812170E-01
          0                 4           7            24   55     3       0.7713617279E-02      24   55    3       0.5140611280E+03      0.6086914883E+03      0.6772825153E+04      0.7713617279E-02

    ------------------------------------------------
       NWT REQUIRED            4 OUTER ITERATIONS 
       AND A TOTAL OF         38 INNER ITERATIONS.
    ------------------------------------------------

 NO OUTPUT CONTROL FOR STRESS PERIOD   68   TIME STEP    8

 SOLVING FOR HEAD 
                                                   Max.-Head-Change                        Max.-Flux-Residual
  Residual-Control   Outer-Iter.   Inner-Iter.     Column Row Layer    Max.-Head-Change    Column Row Layer    Max.-Flux-Residual            L2-New               L2-Old           Solver-Max-Delh
          0                 1          12            65    3     2      -0.1033340668E+02      33   51    2       0.4797759007E+05      0.5174413782E+06      0.6086914883E+03     -0.1033340668E+02
          0                 2          11            27   50     1      -0.5295058740E+00      26   52    2       0.2446821432E+05      0.6666613080E+05      0.5174413782E+06     -0.5295058740E+00
          0                 3           8            27   50     2       0.5146634967E-01      27   50    2       0.3297219672E+04      0.4671800210E+04      0.6666613080E+05      0.5146634967E-01
          0                 4           6            27   50     2       0.4631041896E-02      27   50    2       0.2966165836E+03      0.2969977031E+03      0.4671800210E+04      0.4631041896E-02

    ------------------------------------------------
       NWT REQUIRED            4 OUTER ITERATIONS 
       AND A TOTAL OF         37 INNER ITERATIONS.
    ------------------------------------------------

 NO OUTPUT CONTROL FOR STRESS PERIOD   68   TIME STEP    9

 SOLVING FOR HEAD 
                                                   Max.-Head-Change                        Max.-Flux-Residual
  Residual-Control   Outer-Iter.   Inner-Iter.     Column Row Layer    Max.-Head-Change    Column Row Layer    Max.-Flux-Residual            L2-New               L2-Old           Solver-Max-Delh
          0                 1          12            33   51     2       0.1822152635E+01      33   51    2       0.4693050843E+05      0.5119225780E+06      0.2969977031E+03      0.1822152635E+01
          0                 2          11            34   52     3       0.2958295888E+01      34   52    3       0.2226579786E+05      0.6547692589E+05      0.5119225780E+06      0.2958295888E+01
          0                 3           8            34   52     3      -0.2689436705E+00      34   52    3      -0.2226579843E+04      0.3251825619E+04      0.6547692589E+05     -0.2689436705E+00
          0                 4           5            27   48     2       0.9260951306E-03      27   48    2       0.5873039937E+02      0.5879262996E+02      0.3251825619E+04      0.9260951306E-03

    ------------------------------------------------
       NWT REQUIRED            4 OUTER ITERATIONS 
       AND A TOTAL OF         36 INNER ITERATIONS.
    ------------------------------------------------

 NO OUTPUT CONTROL FOR STRESS PERIOD   68   TIME STEP   10

 SOLVING FOR HEAD 
                                                   Max.-Head-Change                        Max.-Flux-Residual
  Residual-Control   Outer-Iter.   Inner-Iter.     Column Row Layer    Max.-Head-Change    Column Row Layer    Max.-Flux-Residual            L2-New               L2-Old           Solver-Max-Delh
          0                 1          12            34   52     3       0.3844133153E+01      33   52    2       0.4855990809E+05      0.5083783565E+06      0.5879262996E+02      0.3844133153E+01
          0                 2          11            65    5     2      -0.2405500364E+01      27   48    2       0.1369821897E+05      0.5305695347E+05      0.5083783565E+06     -0.2405500364E+01
          0                 3           7            65    5     2       0.1014945797E+00      27   48    2      -0.1186532478E+04      0.1764107208E+04      0.5305695347E+05      0.1014945797E+00
          0                 4           6            65    5     2       0.4893563685E-02      27   49    2       0.8785315382E+02      0.8909081304E+02      0.1764107208E+04      0.4893563685E-02

    ------------------------------------------------
       NWT REQUIRED            4 OUTER ITERATIONS 
       AND A TOTAL OF         36 INNER ITERATIONS.
    ------------------------------------------------

 NO OUTPUT CONTROL FOR STRESS PERIOD   68   TIME STEP   11

 SOLVING FOR HEAD 
                                                   Max.-Head-Change                        Max.-Flux-Residual
  Residual-Control   Outer-Iter.   Inner-Iter.     Column Row Layer    Max.-Head-Change    Column Row Layer    Max.-Flux-Residual            L2-New               L2-Old           Solver-Max-Delh
          0                 1          12            65    5     2      -0.9601669716E+01      33   52    2       0.4874619049E+05      0.5061320195E+06      0.8909081304E+02     -0.9601669716E+01
          0                 2          11            65    5     2       0.7401327416E+00      27   49    2       0.1458865187E+05      0.5460339776E+05      0.5061320195E+06      0.7401327416E+00
          0                 3           7            65    5     2       0.3047771921E-01      27   49    2      -0.1289480993E+04      0.2124040533E+04      0.5460339776E+05      0.3047771921E-01
          0                 4           6            32   52     2       0.1804678176E-02      32   52    2       0.1035257147E+03      0.1093388873E+03      0.2124040533E+04      0.1804678176E-02

    ------------------------------------------------
       NWT REQUIRED            4 OUTER ITERATIONS 
       AND A TOTAL OF         36 INNER ITERATIONS.
    ------------------------------------------------

 OUTPUT CONTROL FOR STRESS PERIOD   68   TIME STEP   12
    SAVE BUDGET
 UBDSV1 SAVING "         STORAGE" ON UNIT  39 AT TIME STEP 12, STRESS PERIOD  68
 UBDSV2 SAVING "   CONSTANT HEAD" ON UNIT  39 AT TIME STEP 12, STRESS PERIOD  68
 UBDSV1 SAVING "FLOW RIGHT FACE " ON UNIT  39 AT TIME STEP 12, STRESS PERIOD  68
 UBDSV1 SAVING "FLOW FRONT FACE " ON UNIT  39 AT TIME STEP 12, STRESS PERIOD  68
 UBDSV1 SAVING "FLOW LOWER FACE " ON UNIT  39 AT TIME STEP 12, STRESS PERIOD  68
 UBDSV3 SAVING "              ET" ON UNIT  39 AT TIME STEP 12, STRESS PERIOD  68
 UBDSV3 SAVING "        RECHARGE" ON UNIT  39 AT TIME STEP 12, STRESS PERIOD  68
1
  VOLUMETRIC BUDGET FOR ENTIRE MODEL AT END OF TIME STEP   12, STRESS PERIOD  68
  ------------------------------------------------------------------------------

     CUMULATIVE VOLUMES      L**3       RATES FOR THIS TIME STEP      L**3/T
     ------------------                 ------------------------

           IN:                                      IN:
           ---                                      ---
             STORAGE = 73894584320.0000               STORAGE =     1110839.5000
       CONSTANT HEAD = 25755852800.0000         CONSTANT HEAD =      921488.7500
               WELLS =   324179520.0000                 WELLS =           0.0000
                  ET =           0.0000                    ET =           0.0000
            RECHARGE =537219006464.0000              RECHARGE =    35361772.0000

            TOTAL IN =637193617408.0000              TOTAL IN =    37394100.0000

          OUT:                                     OUT:
          ----                                     ----
             STORAGE =186681065472.0000               STORAGE =    17801348.0000
       CONSTANT HEAD =170051780608.0000         CONSTANT HEAD =     7303321.5000
               WELLS =  1022804416.0000                 WELLS =       23135.0000
                  ET =279439179776.0000                    ET =    12266311.0000
            RECHARGE =           0.0000              RECHARGE =           0.0000

           TOTAL OUT =637194862592.0000             TOTAL OUT =    37394116.0000

            IN - OUT =    -1245184.0000              IN - OUT =         -16.0000

 PERCENT DISCREPANCY =          -0.00     PERCENT DISCREPANCY =          -0.00






         TIME SUMMARY AT END OF TIME STEP   12 IN STRESS PERIOD   68
                    SECONDS     MINUTES      HOURS       DAYS        YEARS
                    -----------------------------------------------------------
   TIME STEP LENGTH 2.62800E+06  43800.      730.00      30.417     8.32763E-02
 STRESS PERIOD TIME 3.15360E+07 5.25600E+05  8760.0      365.00     0.99932    
         TOTAL TIME 2.14591E+09 3.57652E+07 5.96086E+05  24837.      68.000    
1
1
                            STRESS PERIOD NO.   69, LENGTH =   366.0000    
                            -----------------------------------------------

                              NUMBER OF TIME STEPS =    12

                               MULTIPLIER FOR DELT =     1.000

                            INITIAL TIME STEP SIZE =   30.50000    

 WELL NO.  LAYER   ROW   COL   STRESS RATE         
 --------------------------------------------------
      1      2    103     61     -0.4627E+05

      1 WELL 

 REUSING SURF FROM LAST STRESS PERIOD

 REUSING EVTR FROM LAST STRESS PERIOD

 REUSING EXDP FROM LAST STRESS PERIOD



                           RECHARGE
 READING ON UNIT   16 WITH FORMAT: (15F5.0)            


     63 TIME-VARIANT SPECIFIED-HEAD CELLS

 SOLVING FOR HEAD 
                                                   Max.-Head-Change                        Max.-Flux-Residual
  Residual-Control   Outer-Iter.   Inner-Iter.     Column Row Layer    Max.-Head-Change    Column Row Layer    Max.-Flux-Residual            L2-New               L2-Old           Solver-Max-Delh
          0                 1          12            32   61     1       0.1574729935E+02      30   53    1       0.2155709066E+06      0.7214998203E+06      0.1093388873E+03      0.1574729935E+02
          0                 2          11            32   61     1      -0.1409502903E+01      32   52    2       0.4150215651E+05      0.9047715840E+05      0.7214998203E+06     -0.1409502903E+01
          0                 3           8            32   52     2      -0.1239702285E+00      32   52    2      -0.4150215737E+04      0.4274640006E+04      0.9047715840E+05     -0.1239702285E+00
          0                 4           3            65    2     2       0.1548261218E-02      65    2    2       0.6861073002E+00      0.1853648979E+01      0.4274640006E+04      0.1548261218E-02

    ------------------------------------------------
       NWT REQUIRED            4 OUTER ITERATIONS 
       AND A TOTAL OF         34 INNER ITERATIONS.
    ------------------------------------------------

 NO OUTPUT CONTROL FOR STRESS PERIOD   69   TIME STEP    1

 SOLVING FOR HEAD 
                                                   Max.-Head-Change                        Max.-Flux-Residual
  Residual-Control   Outer-Iter.   Inner-Iter.     Column Row Layer    Max.-Head-Change    Column Row Layer    Max.-Flux-Residual            L2-New               L2-Old           Solver-Max-Delh
          0                 1          12            32   61     2       0.4982986565E+01      32   61    2       0.1482063586E+06      0.6628964248E+06      0.1853648979E+01      0.4982986565E+01
          0                 2          11            32   61     2      -0.4572263329E+00      32   61    2      -0.1521578647E+05      0.6663427433E+05      0.6628964248E+06     -0.4572263329E+00
          0                 3           6            31   39     2      -0.4628989009E-02      31   39    2      -0.5772160837E+02      0.7909004058E+02      0.6663427433E+05     -0.4628989009E-02

    ------------------------------------------------
       NWT REQUIRED            3 OUTER ITERATIONS 
       AND A TOTAL OF         29 INNER ITERATIONS.
    ------------------------------------------------

 NO OUTPUT CONTROL FOR STRESS PERIOD   69   TIME STEP    2

 SOLVING FOR HEAD 
                                                   Max.-Head-Change                        Max.-Flux-Residual
  Residual-Control   Outer-Iter.   Inner-Iter.     Column Row Layer    Max.-Head-Change    Column Row Layer    Max.-Flux-Residual            L2-New               L2-Old           Solver-Max-Delh
          0                 1          12            32   61     2       0.4235262547E+01      32   61    2       0.1243242865E+06      0.6298510535E+06      0.7909004058E+02      0.4235262547E+01
          0                 2          11            32   56     1      -0.4658865236E+00      32   56    1      -0.2673610857E+05      0.7112243450E+05      0.6298510535E+06     -0.4658865236E+00
          0                 3           6            34   66     3      -0.1183803750E-01      34   66    3      -0.3779605779E+03      0.4109279934E+03      0.7112243450E+05     -0.1183803750E-01
          0                 4           2            27   79     2       0.3742362780E-03      91   76    2       0.4921002826E-01      0.1852470857E+00      0.4109279934E+03      0.3742362780E-03

    ------------------------------------------------
       NWT REQUIRED            4 OUTER ITERATIONS 
       AND A TOTAL OF         31 INNER ITERATIONS.
    ------------------------------------------------

 NO OUTPUT CONTROL FOR STRESS PERIOD   69   TIME STEP    3

 SOLVING FOR HEAD 
                                                   Max.-Head-Change                        Max.-Flux-Residual
  Residual-Control   Outer-Iter.   Inner-Iter.     Column Row Layer    Max.-Head-Change    Column Row Layer    Max.-Flux-Residual            L2-New               L2-Old           Solver-Max-Delh
          0                 1          12            32   61     2       0.3651961670E+01      32   61    2       0.1057278539E+06      0.6102266516E+06      0.1852470857E+00      0.3651961670E+01
          0                 2          11            32   61     2      -0.3322805272E+00      26   53    1      -0.1499925976E+05      0.6493136669E+05      0.6102266516E+06     -0.3322805272E+00
          0                 3           7            31   56     1      -0.8027547487E-01      31   56    1      -0.1806940251E+04      0.1825917302E+04      0.6493136669E+05     -0.8027547487E-01
          0                 4           3            27   79     2       0.3692751916E-03      31   56    1      -0.1736592293E+01      0.1755380634E+01      0.1825917302E+04      0.3692751916E-03

    ------------------------------------------------
       NWT REQUIRED            4 OUTER ITERATIONS 
       AND A TOTAL OF         33 INNER ITERATIONS.
    ------------------------------------------------

 NO OUTPUT CONTROL FOR STRESS PERIOD   69   TIME STEP    4

 SOLVING FOR HEAD 
                                                   Max.-Head-Change                        Max.-Flux-Residual
  Residual-Control   Outer-Iter.   Inner-Iter.     Column Row Layer    Max.-Head-Change    Column Row Layer    Max.-Flux-Residual            L2-New               L2-Old           Solver-Max-Delh
          0                 1          12            32   61     2       0.3194043381E+01      32   61    2       0.9119838698E+05      0.5974483796E+06      0.1755380634E+01      0.3194043381E+01
          0                 2          11            31   56     1      -0.8010030025E+00      31   56    1      -0.4109267419E+05      0.7553645034E+05      0.5974483796E+06     -0.8010030025E+00
          0                 3           8            22   39     2      -0.2182221712E-01      18   33    2       0.5879321260E+03      0.1009044301E+04      0.7553645034E+05     -0.2182221712E-01
          0                 4           7            18   33     2       0.1106841721E-02      18   33    2       0.5290305695E+02      0.5382526224E+02      0.1009044301E+04      0.1106841721E-02

    ------------------------------------------------
       NWT REQUIRED            4 OUTER ITERATIONS 
       AND A TOTAL OF         38 INNER ITERATIONS.
    ------------------------------------------------

 NO OUTPUT CONTROL FOR STRESS PERIOD   69   TIME STEP    5

 SOLVING FOR HEAD 
                                                   Max.-Head-Change                        Max.-Flux-Residual
  Residual-Control   Outer-Iter.   Inner-Iter.     Column Row Layer    Max.-Head-Change    Column Row Layer    Max.-Flux-Residual            L2-New               L2-Old           Solver-Max-Delh
          0                 1          13            32   61     2       0.2832489200E+01      32   61    2       0.7978492355E+05      0.5878531835E+06      0.5382526224E+02      0.2832489200E+01
          0                 2          11            28   63     2      -0.6792216080E+00      28   63    2      -0.2124006619E+05      0.6429771301E+05      0.5878531835E+06     -0.6792216080E+00
          0                 3           8            26   49     2       0.2753298231E-01      26   49    2       0.2346416762E+04      0.2640499039E+04      0.6429771301E+05      0.2753298231E-01
          0                 4           6            26   49     2       0.2482819538E-02      26   49    2       0.2111317647E+03      0.2310494695E+03      0.2640499039E+04      0.2482819538E-02

    ------------------------------------------------
       NWT REQUIRED            4 OUTER ITERATIONS 
       AND A TOTAL OF         38 INNER ITERATIONS.
    ------------------------------------------------

 NO OUTPUT CONTROL FOR STRESS PERIOD   69   TIME STEP    6

 SOLVING FOR HEAD 
                                                   Max.-Head-Change                        Max.-Flux-Residual
  Residual-Control   Outer-Iter.   Inner-Iter.     Column Row Layer    Max.-Head-Change    Column Row Layer    Max.-Flux-Residual            L2-New               L2-Old           Solver-Max-Delh
          0                 1          13            31   48     2       0.2910686024E+01      32   61    2       0.7077197786E+05      0.5818317644E+06      0.2310494695E+03      0.2910686024E+01
          0                 2          11            29   55     1      -0.8225952404E+00      29   55    1      -0.3928301701E+05      0.8219093199E+05      0.5818317644E+06     -0.8225952404E+00
          0                 3           7            36   19     2       0.3581013065E-01      36   19    2       0.1544686212E+04      0.1630781322E+04      0.8219093199E+05      0.3581013065E-01
          0                 4           6            36   19     2       0.3222426639E-02      36   19    2       0.1389857496E+03      0.1464859982E+03      0.1630781322E+04      0.3222426639E-02

    ------------------------------------------------
       NWT REQUIRED            4 OUTER ITERATIONS 
       AND A TOTAL OF         37 INNER ITERATIONS.
    ------------------------------------------------

 NO OUTPUT CONTROL FOR STRESS PERIOD   69   TIME STEP    7

 SOLVING FOR HEAD 
                                                   Max.-Head-Change                        Max.-Flux-Residual
  Residual-Control   Outer-Iter.   Inner-Iter.     Column Row Layer    Max.-Head-Change    Column Row Layer    Max.-Flux-Residual            L2-New               L2-Old           Solver-Max-Delh
          0                 1          13            31   61     2       0.2321866153E+01      32   61    2       0.6361010198E+05      0.5750557690E+06      0.1464859982E+03      0.2321866153E+01
          0                 2          11            36   19     2       0.8244140430E+00      26   50    1      -0.1767937838E+05      0.6509647443E+05      0.5750557690E+06      0.8244140430E+00
          0                 3           7            36   19     2      -0.7496560106E-01      29   55    2      -0.1149199012E+04      0.1587095594E+04      0.6509647443E+05     -0.7496560106E-01
          0                 4           2            27   79     2       0.3680433905E-03      26   49    1       0.3041815907E+00      0.4283339687E+00      0.1587095594E+04      0.3680433905E-03

    ------------------------------------------------
       NWT REQUIRED            4 OUTER ITERATIONS 
       AND A TOTAL OF         33 INNER ITERATIONS.
    ------------------------------------------------

 NO OUTPUT CONTROL FOR STRESS PERIOD   69   TIME STEP    8

 SOLVING FOR HEAD 
                                                   Max.-Head-Change                        Max.-Flux-Residual
  Residual-Control   Outer-Iter.   Inner-Iter.     Column Row Layer    Max.-Head-Change    Column Row Layer    Max.-Flux-Residual            L2-New               L2-Old           Solver-Max-Delh
          0                 1          13            31   61     2       0.2142977446E+01      31   61    2       0.5801628185E+05      0.5691586729E+06      0.4283339687E+00      0.2142977446E+01
          0                 2          11            32   54     2       0.5151662902E+00      32   54    2       0.2820750981E+05      0.6361558122E+05      0.5691586729E+06      0.5151662902E+00
          0                 3           7            32   54     2      -0.4693107422E-01      32   54    2      -0.2724428802E+04      0.2817972111E+04      0.6361558122E+05     -0.4693107422E-01
          0                 4           2            27   79     2       0.3677556677E-03      32   55    1       0.3583261818E+00      0.4977317349E+00      0.2817972111E+04      0.3677556677E-03

    ------------------------------------------------
       NWT REQUIRED            4 OUTER ITERATIONS 
       AND A TOTAL OF         33 INNER ITERATIONS.
    ------------------------------------------------

 NO OUTPUT CONTROL FOR STRESS PERIOD   69   TIME STEP    9

 SOLVING FOR HEAD 
                                                   Max.-Head-Change                        Max.-Flux-Residual
  Residual-Control   Outer-Iter.   Inner-Iter.     Column Row Layer    Max.-Head-Change    Column Row Layer    Max.-Flux-Residual            L2-New               L2-Old           Solver-Max-Delh
          0                 1          13            31   61     2       0.1997256493E+01      31   61    2       0.5355315724E+05      0.5666843847E+06      0.4977317349E+00      0.1997256493E+01
          0                 2          11            31   50     2       0.2996485630E+00      31   50    2       0.1087137200E+05      0.5767928050E+05      0.5666843847E+06      0.2996485630E+00
          0                 3           7            31   50     2      -0.2725017947E-01      31   50    2      -0.8955408522E+03      0.9826357260E+03      0.5767928050E+05     -0.2725017947E-01
          0                 4           2            27   79     2       0.3674297938E-03      30   65    1      -0.3304357827E-01      0.1925594162E+00      0.9826357260E+03      0.3674297938E-03

    ------------------------------------------------
       NWT REQUIRED            4 OUTER ITERATIONS 
       AND A TOTAL OF         33 INNER ITERATIONS.
    ------------------------------------------------

 NO OUTPUT CONTROL FOR STRESS PERIOD   69   TIME STEP   10

 SOLVING FOR HEAD 
                                                   Max.-Head-Change                        Max.-Flux-Residual
  Residual-Control   Outer-Iter.   Inner-Iter.     Column Row Layer    Max.-Head-Change    Column Row Layer    Max.-Flux-Residual            L2-New               L2-Old           Solver-Max-Delh
          0                 1          13            31   50     2       0.2285474943E+01      31   61    2       0.4991366204E+05      0.5629858600E+06      0.1925594162E+00      0.2285474943E+01
          0                 2          11            31   65     2      -0.3543828605E+00      31   65    2      -0.1069322519E+05      0.5817952378E+05      0.5629858600E+06     -0.3543828605E+00
          0                 3           7            29   64     3       0.3164421240E-01      29   64    3       0.1499459104E+04      0.1530213371E+04      0.5817952378E+05      0.3164421240E-01
          0                 4           5            29   64     3       0.2955685041E-02      29   64    3       0.1408518205E+03      0.1424544671E+03      0.1530213371E+04      0.2955685041E-02

    ------------------------------------------------
       NWT REQUIRED            4 OUTER ITERATIONS 
       AND A TOTAL OF         36 INNER ITERATIONS.
    ------------------------------------------------

 NO OUTPUT CONTROL FOR STRESS PERIOD   69   TIME STEP   11

 SOLVING FOR HEAD 
                                                   Max.-Head-Change                        Max.-Flux-Residual
  Residual-Control   Outer-Iter.   Inner-Iter.     Column Row Layer    Max.-Head-Change    Column Row Layer    Max.-Flux-Residual            L2-New               L2-Old           Solver-Max-Delh
          0                 1          13            31   61     2       0.1779078535E+01      31   61    2       0.4693003138E+05      0.5597694265E+06      0.1424544671E+03      0.1779078535E+01
          0                 2          11            27   54     2       0.3026892909E+00      27   54    2       0.1850875510E+05      0.5995929956E+05      0.5597694265E+06      0.3026892909E+00
          0                 3           7            73   14     1      -0.8326056369E-01      73   14    1      -0.3211679821E+04      0.3767615591E+04      0.5995929956E+05     -0.8326056369E-01
          0                 4           3            73   14     1      -0.7496807538E-02      73   14    1      -0.2891319646E+03      0.2891376997E+03      0.3767615591E+04     -0.7496807538E-02

    ------------------------------------------------
       NWT REQUIRED            4 OUTER ITERATIONS 
       AND A TOTAL OF         34 INNER ITERATIONS.
    ------------------------------------------------

 OUTPUT CONTROL FOR STRESS PERIOD   69   TIME STEP   12
    SAVE BUDGET
 UBDSV1 SAVING "         STORAGE" ON UNIT  39 AT TIME STEP 12, STRESS PERIOD  69
 UBDSV2 SAVING "   CONSTANT HEAD" ON UNIT  39 AT TIME STEP 12, STRESS PERIOD  69
 UBDSV1 SAVING "FLOW RIGHT FACE " ON UNIT  39 AT TIME STEP 12, STRESS PERIOD  69
 UBDSV1 SAVING "FLOW FRONT FACE " ON UNIT  39 AT TIME STEP 12, STRESS PERIOD  69
 UBDSV1 SAVING "FLOW LOWER FACE " ON UNIT  39 AT TIME STEP 12, STRESS PERIOD  69
 UBDSV3 SAVING "              ET" ON UNIT  39 AT TIME STEP 12, STRESS PERIOD  69
 UBDSV3 SAVING "        RECHARGE" ON UNIT  39 AT TIME STEP 12, STRESS PERIOD  69
1
  VOLUMETRIC BUDGET FOR ENTIRE MODEL AT END OF TIME STEP   12, STRESS PERIOD  69
  ------------------------------------------------------------------------------

     CUMULATIVE VOLUMES      L**3       RATES FOR THIS TIME STEP      L**3/T
     ------------------                 ------------------------

           IN:                                      IN:
           ---                                      ---
             STORAGE = 74317717504.0000               STORAGE =      895654.8750
       CONSTANT HEAD = 26098219008.0000         CONSTANT HEAD =      940544.6250
               WELLS =   324179520.0000                 WELLS =           0.0000
                  ET =           0.0000                    ET =           0.0000
            RECHARGE =550444400640.0000              RECHARGE =    36134860.0000

            TOTAL IN =651184504832.0000              TOTAL IN =    37971060.0000

          OUT:                                     OUT:
          ----                                     ----
             STORAGE =193479540736.0000               STORAGE =    18295530.0000
       CONSTANT HEAD =172715720704.0000         CONSTANT HEAD =     7280254.5000
               WELLS =  1039739584.0000                 WELLS =       46271.0000
                  ET =283950645248.0000                    ET =    12349055.0000
            RECHARGE =           0.0000              RECHARGE =           0.0000

           TOTAL OUT =651185618944.0000             TOTAL OUT =    37971112.0000

            IN - OUT =    -1114112.0000              IN - OUT =         -52.0000

 PERCENT DISCREPANCY =          -0.00     PERCENT DISCREPANCY =          -0.00






         TIME SUMMARY AT END OF TIME STEP   12 IN STRESS PERIOD   69
                    SECONDS     MINUTES      HOURS       DAYS        YEARS
                    -----------------------------------------------------------
   TIME STEP LENGTH 2.63520E+06  43920.      732.00      30.500     8.35044E-02
 STRESS PERIOD TIME 3.16224E+07 5.27040E+05  8784.0      366.00      1.0021    
         TOTAL TIME 2.17753E+09 3.62922E+07 6.04870E+05  25203.      69.002    
1
1
                            STRESS PERIOD NO.   70, LENGTH =   365.0000    
                            -----------------------------------------------

                              NUMBER OF TIME STEPS =    12

                               MULTIPLIER FOR DELT =     1.000

                            INITIAL TIME STEP SIZE =   30.41667    

 WELL NO.  LAYER   ROW   COL   STRESS RATE         
 --------------------------------------------------
      1      2    104     59     -0.5551E+05

      1 WELL 

 REUSING SURF FROM LAST STRESS PERIOD

 REUSING EVTR FROM LAST STRESS PERIOD

 REUSING EXDP FROM LAST STRESS PERIOD



                           RECHARGE
 READING ON UNIT   16 WITH FORMAT: (15F5.0)            


     63 TIME-VARIANT SPECIFIED-HEAD CELLS

 SOLVING FOR HEAD 
                                                   Max.-Head-Change                        Max.-Flux-Residual
  Residual-Control   Outer-Iter.   Inner-Iter.     Column Row Layer    Max.-Head-Change    Column Row Layer    Max.-Flux-Residual            L2-New               L2-Old           Solver-Max-Delh
          0                 1          13            32   61     1       0.3182869607E+02      32   60    1       0.3260381719E+06      0.9873240042E+06      0.2891376997E+03      0.3182869607E+02
          0                 2          11            32   61     1      -0.2873163774E+01      32   60    1      -0.3181270907E+05      0.1015161272E+06      0.9873240042E+06     -0.2873163774E+01
          0                 3           6            73   14     1       0.1179317999E+00      73   14    1       0.9223087553E+03      0.9578272185E+03      0.1015161272E+06      0.1179317999E+00
          0                 4           3            13   85     1       0.1235021729E-02      68   47    1      -0.3774871819E+01      0.5426933042E+01      0.9578272185E+03      0.1235021729E-02

    ------------------------------------------------
       NWT REQUIRED            4 OUTER ITERATIONS 
       AND A TOTAL OF         33 INNER ITERATIONS.
    ------------------------------------------------

 NO OUTPUT CONTROL FOR STRESS PERIOD   70   TIME STEP    1

 SOLVING FOR HEAD 
                                                   Max.-Head-Change                        Max.-Flux-Residual
  Residual-Control   Outer-Iter.   Inner-Iter.     Column Row Layer    Max.-Head-Change    Column Row Layer    Max.-Flux-Residual            L2-New               L2-Old           Solver-Max-Delh
          0                 1          13            32   61     2       0.9645513475E+01      32   61    2       0.2965831841E+06      0.9142376104E+06      0.5426933042E+01      0.9645513475E+01
          0                 2          11            92   77     2      -0.3944468574E+01      32   61    2      -0.3108951651E+05      0.9318592700E+05      0.9142376104E+06     -0.3944468574E+01
          0                 3           7            31   46     2      -0.3987142954E-01      31   46    2      -0.6427999489E+03      0.9057742535E+03      0.9318592700E+05     -0.3987142954E-01
          0                 4           2            92   77     2       0.2976182744E-02      92   77    2       0.1040504441E+01      0.1289513497E+01      0.9057742535E+03      0.2976182744E-02

    ------------------------------------------------
       NWT REQUIRED            4 OUTER ITERATIONS 
       AND A TOTAL OF         33 INNER ITERATIONS.
    ------------------------------------------------

 NO OUTPUT CONTROL FOR STRESS PERIOD   70   TIME STEP    2

 SOLVING FOR HEAD 
                                                   Max.-Head-Change                        Max.-Flux-Residual
  Residual-Control   Outer-Iter.   Inner-Iter.     Column Row Layer    Max.-Head-Change    Column Row Layer    Max.-Flux-Residual            L2-New               L2-Old           Solver-Max-Delh
          0                 1          13            92   77     2      -0.9264543094E+02      32   61    2       0.2410314564E+06      0.8321707866E+06      0.1289513497E+01     -0.9264543094E+02
          0                 2          11            92   77     2       0.2558676335E+02      32   61    1      -0.4109077981E+05      0.9925526369E+05      0.8321707866E+06      0.2558676335E+02
          0                 3           6            92   77     2       0.9951588757E+00      25   60    3       0.9421797577E+03      0.1368504092E+04      0.9925526369E+05      0.9951588757E+00
          0                 4           4            92   77     2       0.3590946616E-01      25   60    3       0.8478918985E+02      0.8952975090E+02      0.1368504092E+04      0.3590946616E-01
          0                 5           3            92   77     2       0.1305179138E-02      25   60    3       0.7622496504E+01      0.7726637704E+01      0.8952975090E+02      0.1305179138E-02

    ------------------------------------------------
       NWT REQUIRED            5 OUTER ITERATIONS 
       AND A TOTAL OF         37 INNER ITERATIONS.
    ------------------------------------------------

 NO OUTPUT CONTROL FOR STRESS PERIOD   70   TIME STEP    3

 SOLVING FOR HEAD 
                                                   Max.-Head-Change                        Max.-Flux-Residual
  Residual-Control   Outer-Iter.   Inner-Iter.     Column Row Layer    Max.-Head-Change    Column Row Layer    Max.-Flux-Residual            L2-New               L2-Old           Solver-Max-Delh
          0                 1          13            31   61     2       0.6377357749E+01      32   61    2       0.1950200033E+06      0.7784841242E+06      0.7726637704E+01      0.6377357749E+01
          0                 2          11            31   61     2      -0.5867976878E+00      33   55    1      -0.2078742907E+05      0.8424926022E+05      0.7784841242E+06     -0.5867976878E+00
          0                 3           6            25   60     3      -0.3671244419E-01      25   60    3      -0.1859272269E+04      0.2095283559E+04      0.8424926022E+05     -0.3671244419E-01
          0                 4           5            33   55     2       0.9453110792E-03      33   55    2       0.6992171943E+02      0.6999775255E+02      0.2095283559E+04      0.9453110792E-03

    ------------------------------------------------
       NWT REQUIRED            4 OUTER ITERATIONS 
       AND A TOTAL OF         35 INNER ITERATIONS.
    ------------------------------------------------

 NO OUTPUT CONTROL FOR STRESS PERIOD   70   TIME STEP    4

 SOLVING FOR HEAD 
                                                   Max.-Head-Change                        Max.-Flux-Residual
  Residual-Control   Outer-Iter.   Inner-Iter.     Column Row Layer    Max.-Head-Change    Column Row Layer    Max.-Flux-Residual            L2-New               L2-Old           Solver-Max-Delh
          0                 1          13            31   61     2       0.5350030097E+01      31   61    2       0.1595368856E+06      0.7350838842E+06      0.6999775255E+02      0.5350030097E+01
          0                 2          11            32   60     1      -0.1307730825E+01      32   60    1      -0.5098511991E+05      0.1009068687E+06      0.7350838842E+06     -0.1307730825E+01
          0                 3           8            31   47     2      -0.1921939910E+00      31   47    2      -0.3298074907E+04      0.5089162359E+04      0.1009068687E+06     -0.1921939910E+00
          0                 4           6            32   47     2       0.2998177819E-02      32   47    2       0.1317504903E+03      0.1327169516E+03      0.5089162359E+04      0.2998177819E-02

    ------------------------------------------------
       NWT REQUIRED            4 OUTER ITERATIONS 
       AND A TOTAL OF         38 INNER ITERATIONS.
    ------------------------------------------------

 NO OUTPUT CONTROL FOR STRESS PERIOD   70   TIME STEP    5

 SOLVING FOR HEAD 
                                                   Max.-Head-Change                        Max.-Flux-Residual
  Residual-Control   Outer-Iter.   Inner-Iter.     Column Row Layer    Max.-Head-Change    Column Row Layer    Max.-Flux-Residual            L2-New               L2-Old           Solver-Max-Delh
          0                 1          13            31   61     2       0.4562604947E+01      31   61    2       0.1338038284E+06      0.7075002070E+06      0.1327169516E+03      0.4562604947E+01
          0                 2          11            31   61     2      -0.4154269105E+00      25   50    1      -0.1769098495E+05      0.7766000670E+05      0.7075002070E+06     -0.4154269105E+00
          0                 3           7            32   66     3       0.4485907226E-01      32   66    3       0.2009839438E+04      0.2010495845E+04      0.7766000670E+05      0.4485907226E-01
          0                 4           5            32   66     1       0.5012513159E-02      32   66    3       0.1808711845E+03      0.1808826484E+03      0.2010495845E+04      0.5012513159E-02

    ------------------------------------------------
       NWT REQUIRED            4 OUTER ITERATIONS 
       AND A TOTAL OF         36 INNER ITERATIONS.
    ------------------------------------------------

 NO OUTPUT CONTROL FOR STRESS PERIOD   70   TIME STEP    6

 SOLVING FOR HEAD 
                                                   Max.-Head-Change                        Max.-Flux-Residual
  Residual-Control   Outer-Iter.   Inner-Iter.     Column Row Layer    Max.-Head-Change    Column Row Layer    Max.-Flux-Residual            L2-New               L2-Old           Solver-Max-Delh
          0                 1          13            31   61     2       0.3973021554E+01      31   61    2       0.1142706839E+06      0.6866808946E+06      0.1808826484E+03      0.3973021554E+01
          0                 2          11            34   37     3       0.2188197346E+01      31   61    1      -0.3616683179E+05      0.8214588973E+05      0.6866808946E+06      0.2188197346E+01
          0                 3           7            34   37     3      -0.2217722970E+00      32   66    3      -0.1089288908E+04      0.1272843253E+04      0.8214588973E+05     -0.2217722970E+00
          0                 4           5            34   37     3       0.2072162079E-01      33   37    3      -0.8019727128E+02      0.1143028403E+03      0.1272843253E+04      0.2072162079E-01
          0                 5           3            34   37     3       0.1865149375E-02      34   37    3       0.6504099560E+01      0.8170543890E+01      0.1143028403E+03      0.1865149375E-02

    ------------------------------------------------
       NWT REQUIRED            5 OUTER ITERATIONS 
       AND A TOTAL OF         39 INNER ITERATIONS.
    ------------------------------------------------

 NO OUTPUT CONTROL FOR STRESS PERIOD   70   TIME STEP    7

 SOLVING FOR HEAD 
                                                   Max.-Head-Change                        Max.-Flux-Residual
  Residual-Control   Outer-Iter.   Inner-Iter.     Column Row Layer    Max.-Head-Change    Column Row Layer    Max.-Flux-Residual            L2-New               L2-Old           Solver-Max-Delh
          0                 1          13            32   62     1       0.3346342595E+01      31   61    2       0.9462798629E+05      0.6718535746E+06      0.8170543890E+01      0.3346342595E+01
          0                 2          11            32   57     1      -0.4045084263E+00      25   52    1      -0.2347786777E+05      0.7497678483E+05      0.6718535746E+06     -0.4045084263E+00
          0                 3           8            32   57     2       0.1171243185E+00      32   57    2       0.8186926114E+04      0.8233092393E+04      0.7497678483E+05      0.1171243185E+00
          0                 4           6            32   57     2       0.1053620126E-01      32   57    2       0.7363655971E+03      0.7405103101E+03      0.8233092393E+04      0.1053620126E-01
          0                 5           5            32   57     2       0.9474004476E-03      32   57    2       0.6619559405E+02      0.6656818276E+02      0.7405103101E+03      0.9474004476E-03

    ------------------------------------------------
       NWT REQUIRED            5 OUTER ITERATIONS 
       AND A TOTAL OF         43 INNER ITERATIONS.
    ------------------------------------------------

 NO OUTPUT CONTROL FOR STRESS PERIOD   70   TIME STEP    8

 SOLVING FOR HEAD 
                                                   Max.-Head-Change                        Max.-Flux-Residual
  Residual-Control   Outer-Iter.   Inner-Iter.     Column Row Layer    Max.-Head-Change    Column Row Layer    Max.-Flux-Residual            L2-New               L2-Old           Solver-Max-Delh
          0                 1          13            32   62     1       0.3070713888E+01      32   62    2       0.8244121555E+05      0.6583051139E+06      0.6656818276E+02      0.3070713888E+01
          0                 2          11            31   45     2       0.1137326574E+01      33   56    1      -0.4223899221E+05      0.9891317321E+05      0.6583051139E+06      0.1137326574E+01
          0                 3           7            31   45     2      -0.1031979787E+00      32   57    2      -0.3168566362E+04      0.3853656906E+04      0.9891317321E+05     -0.1031979787E+00
          0                 4           3            27   79     2       0.3650986548E-03      33   57    1       0.1129800394E+01      0.1693366432E+01      0.3853656906E+04      0.3650986548E-03

    ------------------------------------------------
       NWT REQUIRED            4 OUTER ITERATIONS 
       AND A TOTAL OF         34 INNER ITERATIONS.
    ------------------------------------------------

 NO OUTPUT CONTROL FOR STRESS PERIOD   70   TIME STEP    9

 SOLVING FOR HEAD 
                                                   Max.-Head-Change                        Max.-Flux-Residual
  Residual-Control   Outer-Iter.   Inner-Iter.     Column Row Layer    Max.-Head-Change    Column Row Layer    Max.-Flux-Residual            L2-New               L2-Old           Solver-Max-Delh
          0                 1          13            33   61     1       0.2899099866E+01      32   62    2       0.7563959481E+05      0.6484391846E+06      0.1693366432E+01      0.2899099866E+01
          0                 2          11            35   66     2      -0.2694466080E+00      35   66    2      -0.8228859333E+04      0.6568676164E+05      0.6484391846E+06     -0.2694466080E+00
          0                 3           7            35   66     3      -0.1232773147E-01      35   66    3      -0.4202663933E+03      0.6423980818E+03      0.6568676164E+05     -0.1232773147E-01
          0                 4           2            27   79     2       0.3662159141E-03      35   67    3       0.1171745919E+00      0.2931207143E+00      0.6423980818E+03      0.3662159141E-03

    ------------------------------------------------
       NWT REQUIRED            4 OUTER ITERATIONS 
       AND A TOTAL OF         33 INNER ITERATIONS.
    ------------------------------------------------

 NO OUTPUT CONTROL FOR STRESS PERIOD   70   TIME STEP   10

 SOLVING FOR HEAD 
                                                   Max.-Head-Change                        Max.-Flux-Residual
  Residual-Control   Outer-Iter.   Inner-Iter.     Column Row Layer    Max.-Head-Change    Column Row Layer    Max.-Flux-Residual            L2-New               L2-Old           Solver-Max-Delh
          0                 1          13            33   61     1       0.2756315140E+01      32   62    2       0.7009753932E+05      0.6421816661E+06      0.2931207143E+00      0.2756315140E+01
          0                 2          11            33   66     2      -0.2903752573E+00      28   55    1      -0.9935815261E+04      0.6576467606E+05      0.6421816661E+06     -0.2903752573E+00
          0                 3           6            33   66     3      -0.1273492673E-01      33   66    3      -0.4124614713E+03      0.4583962531E+03      0.6576467606E+05     -0.1273492673E-01
          0                 4           2            27   79     2       0.3660779944E-03      67   46    1      -0.8117727488E+00      0.8924646590E+00      0.4583962531E+03      0.3660779944E-03

    ------------------------------------------------
       NWT REQUIRED            4 OUTER ITERATIONS 
       AND A TOTAL OF         32 INNER ITERATIONS.
    ------------------------------------------------

 NO OUTPUT CONTROL FOR STRESS PERIOD   70   TIME STEP   11

 SOLVING FOR HEAD 
                                                   Max.-Head-Change                        Max.-Flux-Residual
  Residual-Control   Outer-Iter.   Inner-Iter.     Column Row Layer    Max.-Head-Change    Column Row Layer    Max.-Flux-Residual            L2-New               L2-Old           Solver-Max-Delh
          0                 1          13            33   61     1       0.2630102924E+01      33   61    2       0.6647908276E+05      0.6354716654E+06      0.8924646590E+00      0.2630102924E+01
          0                 2          11            32   61     2       0.1037077207E+01      32   61    2       0.3491918695E+05      0.8115580068E+05      0.6354716654E+06      0.1037077207E+01
          0                 3           6            32   61     2      -0.9424234112E-01      32   61    2      -0.3286665330E+04      0.3596404967E+04      0.8115580068E+05     -0.9424234112E-01
          0                 4           3            27   79     2       0.3659986807E-03      74   49    1      -0.2022146601E+01      0.2107430244E+01      0.3596404967E+04      0.3659986807E-03

    ------------------------------------------------
       NWT REQUIRED            4 OUTER ITERATIONS 
       AND A TOTAL OF         33 INNER ITERATIONS.
    ------------------------------------------------

 OUTPUT CONTROL FOR STRESS PERIOD   70   TIME STEP   12
    SAVE BUDGET
 UBDSV1 SAVING "         STORAGE" ON UNIT  39 AT TIME STEP 12, STRESS PERIOD  70
 UBDSV2 SAVING "   CONSTANT HEAD" ON UNIT  39 AT TIME STEP 12, STRESS PERIOD  70
 UBDSV1 SAVING "FLOW RIGHT FACE " ON UNIT  39 AT TIME STEP 12, STRESS PERIOD  70
 UBDSV1 SAVING "FLOW FRONT FACE " ON UNIT  39 AT TIME STEP 12, STRESS PERIOD  70
 UBDSV1 SAVING "FLOW LOWER FACE " ON UNIT  39 AT TIME STEP 12, STRESS PERIOD  70
 UBDSV3 SAVING "              ET" ON UNIT  39 AT TIME STEP 12, STRESS PERIOD  70
 UBDSV3 SAVING "        RECHARGE" ON UNIT  39 AT TIME STEP 12, STRESS PERIOD  70
1
  VOLUMETRIC BUDGET FOR ENTIRE MODEL AT END OF TIME STEP   12, STRESS PERIOD  70
  ------------------------------------------------------------------------------

     CUMULATIVE VOLUMES      L**3       RATES FOR THIS TIME STEP      L**3/T
     ------------------                 ------------------------

           IN:                                      IN:
           ---                                      ---
             STORAGE = 75771936768.0000               STORAGE =     3358726.0000
       CONSTANT HEAD = 26448320512.0000         CONSTANT HEAD =      967080.4375
               WELLS =   324179520.0000                 WELLS =           0.0000
                  ET =           0.0000                    ET =           0.0000
            RECHARGE =562203131904.0000              RECHARGE =    32214646.0000

            TOTAL IN =664747573248.0000              TOTAL IN =    36540452.0000

          OUT:                                     OUT:
          ----                                     ----
             STORAGE =200175255552.0000               STORAGE =    18114274.0000
       CONSTANT HEAD =175422373888.0000         CONSTANT HEAD =     7496681.0000
               WELLS =  1060001728.0000                 WELLS =       55512.0000
                  ET =288090619904.0000                    ET =    10874009.0000
            RECHARGE =           0.0000              RECHARGE =           0.0000

           TOTAL OUT =664748294144.0000             TOTAL OUT =    36540476.0000

            IN - OUT =     -720896.0000              IN - OUT =         -24.0000

 PERCENT DISCREPANCY =          -0.00     PERCENT DISCREPANCY =          -0.00






         TIME SUMMARY AT END OF TIME STEP   12 IN STRESS PERIOD   70
                    SECONDS     MINUTES      HOURS       DAYS        YEARS
                    -----------------------------------------------------------
   TIME STEP LENGTH 2.62800E+06  43800.      730.00      30.417     8.32763E-02
 STRESS PERIOD TIME 3.15360E+07 5.25600E+05  8760.0      365.00     0.99932    
         TOTAL TIME 2.20907E+09 3.68178E+07 6.13630E+05  25568.      70.001    
1
1
                            STRESS PERIOD NO.   71, LENGTH =   365.0000    
                            -----------------------------------------------

                              NUMBER OF TIME STEPS =    12

                               MULTIPLIER FOR DELT =     1.000

                            INITIAL TIME STEP SIZE =   30.41667    

 WELL NO.  LAYER   ROW   COL   STRESS RATE         
 --------------------------------------------------
      1      2    106     59     -0.9434E+05

      1 WELL 

 REUSING SURF FROM LAST STRESS PERIOD

 REUSING EVTR FROM LAST STRESS PERIOD

 REUSING EXDP FROM LAST STRESS PERIOD



                           RECHARGE
 READING ON UNIT   16 WITH FORMAT: (15F5.0)            


     63 TIME-VARIANT SPECIFIED-HEAD CELLS

 SOLVING FOR HEAD 
                                                   Max.-Head-Change                        Max.-Flux-Residual
  Residual-Control   Outer-Iter.   Inner-Iter.     Column Row Layer    Max.-Head-Change    Column Row Layer    Max.-Flux-Residual            L2-New               L2-Old           Solver-Max-Delh
          0                 1          13            31   62     1       0.2981612182E+02      32   61    1       0.4850219388E+06      0.1250982632E+07      0.2107430244E+01      0.2981612182E+02
          0                 2          11            31   60     1      -0.8489938280E+01      31   60    1      -0.3847471007E+06      0.6543417096E+06      0.1250982632E+07     -0.8489938280E+01
          0                 3           6            92   77     2       0.4556616044E+00      31   60    1      -0.2738717386E+04      0.4909494939E+04      0.6543417096E+06      0.4556616044E+00
          0                 4           5            92   77     2       0.5746065070E-01      31   59    1       0.1433091315E+03      0.2464938170E+03      0.4909494939E+04      0.5746065070E-01
          0                 5           4            92   77     2       0.7236092665E-02      31   59    1       0.1309154105E+02      0.2285258954E+02      0.2464938170E+03      0.7236092665E-02

    ------------------------------------------------
       NWT REQUIRED            5 OUTER ITERATIONS 
       AND A TOTAL OF         39 INNER ITERATIONS.
    ------------------------------------------------

 NO OUTPUT CONTROL FOR STRESS PERIOD   71   TIME STEP    1

 INTERPOLATION FOR HEAD OBS#  640, ID 3014-71-54   CHANGED BECAUSE AT LEAST ONE
 NEIGHBORING CELL REQUIRED FOR INTERPOLATION IS DRY OR INACTIVE (OBS2BAS7SE)

 INTERPOLATION FOR HEAD OBS# 1336, ID 2852-71-56   CHANGED BECAUSE AT LEAST ONE
 NEIGHBORING CELL REQUIRED FOR INTERPOLATION IS DRY OR INACTIVE (OBS2BAS7SE)

 INTERPOLATION FOR HEAD OBS# 2184, ID 2355-71-47   CHANGED BECAUSE AT LEAST ONE
 NEIGHBORING CELL REQUIRED FOR INTERPOLATION IS DRY OR INACTIVE (OBS2BAS7SE)

 INTERPOLATION FOR HEAD OBS# 3197, ID 2443-71-42   CHANGED BECAUSE AT LEAST ONE
 NEIGHBORING CELL REQUIRED FOR INTERPOLATION IS DRY OR INACTIVE (OBS2BAS7SE)

 INTERPOLATION FOR HEAD OBS# 3609, ID 1370-71-50   CHANGED BECAUSE AT LEAST ONE
 NEIGHBORING CELL REQUIRED FOR INTERPOLATION IS DRY OR INACTIVE (OBS2BAS7SE)

 INTERPOLATION FOR HEAD OBS# 7733, ID 92-71-40     CHANGED BECAUSE AT LEAST ONE
 NEIGHBORING CELL REQUIRED FOR INTERPOLATION IS DRY OR INACTIVE (OBS2BAS7SE)

 SOLVING FOR HEAD 
                                                   Max.-Head-Change                        Max.-Flux-Residual
  Residual-Control   Outer-Iter.   Inner-Iter.     Column Row Layer    Max.-Head-Change    Column Row Layer    Max.-Flux-Residual            L2-New               L2-Old           Solver-Max-Delh
          0                 1          13            32   61     1       0.1280512996E+02      32   61    1       0.3922936706E+06      0.1049536660E+07      0.2285258954E+02      0.1280512996E+02
          0                 2          11            32   60     1      -0.1232807294E+01      32   61    1      -0.4247833839E+05      0.1088135036E+06      0.1049536660E+07     -0.1232807294E+01
          0                 3           7            24   49     2       0.9873110834E-02      24   49    2       0.6494768069E+03      0.8168388696E+03      0.1088135036E+06      0.9873110834E-02

    ------------------------------------------------
       NWT REQUIRED            3 OUTER ITERATIONS 
       AND A TOTAL OF         31 INNER ITERATIONS.
    ------------------------------------------------

 NO OUTPUT CONTROL FOR STRESS PERIOD   71   TIME STEP    2

 INTERPOLATION FOR HEAD OBS# 1406, ID 2827-71-61   CHANGED BECAUSE AT LEAST ONE
 NEIGHBORING CELL REQUIRED FOR INTERPOLATION IS DRY OR INACTIVE (OBS2BAS7SE)

 INTERPOLATION FOR HEAD OBS# 3698, ID 1479-71-70   CHANGED BECAUSE AT LEAST ONE
 NEIGHBORING CELL REQUIRED FOR INTERPOLATION IS DRY OR INACTIVE (OBS2BAS7SE)

 INTERPOLATION FOR HEAD OBS# 3711, ID 1471-71-70   CHANGED BECAUSE AT LEAST ONE
 NEIGHBORING CELL REQUIRED FOR INTERPOLATION IS DRY OR INACTIVE (OBS2BAS7SE)

 INTERPOLATION FOR HEAD OBS# 6248, ID 1067-71-63   CHANGED BECAUSE AT LEAST ONE
 NEIGHBORING CELL REQUIRED FOR INTERPOLATION IS DRY OR INACTIVE (OBS2BAS7SE)

 INTERPOLATION FOR HEAD OBS# 6249, ID 1066-71-63   CHANGED BECAUSE AT LEAST ONE
 NEIGHBORING CELL REQUIRED FOR INTERPOLATION IS DRY OR INACTIVE (OBS2BAS7SE)

 INTERPOLATION FOR HEAD OBS# 7378, ID 425-71-61    CHANGED BECAUSE AT LEAST ONE
 NEIGHBORING CELL REQUIRED FOR INTERPOLATION IS DRY OR INACTIVE (OBS2BAS7SE)

 SOLVING FOR HEAD 
                                                   Max.-Head-Change                        Max.-Flux-Residual
  Residual-Control   Outer-Iter.   Inner-Iter.     Column Row Layer    Max.-Head-Change    Column Row Layer    Max.-Flux-Residual            L2-New               L2-Old           Solver-Max-Delh
          0                 1          13            32   61     1       0.1029917732E+02      32   61    1       0.3183338451E+06      0.9629421230E+06      0.8168388696E+03      0.1029917732E+02
          0                 2          11            31   61     2       0.5837088925E+01      31   61    2       0.1801586700E+06      0.2575945388E+06      0.9629421230E+06      0.5837088925E+01
          0                 3           8            31   61     2      -0.5314292654E+00      31   61    2      -0.1800440832E+05      0.1907323036E+05      0.2575945388E+06     -0.5314292654E+00
          0                 4           6            25   53     2       0.3543904736E-02      25   53    2       0.2638920109E+03      0.2654039225E+03      0.1907323036E+05      0.3543904736E-02

    ------------------------------------------------
       NWT REQUIRED            4 OUTER ITERATIONS 
       AND A TOTAL OF         38 INNER ITERATIONS.
    ------------------------------------------------

 NO OUTPUT CONTROL FOR STRESS PERIOD   71   TIME STEP    3

 SOLVING FOR HEAD 
                                                   Max.-Head-Change                        Max.-Flux-Residual
  Residual-Control   Outer-Iter.   Inner-Iter.     Column Row Layer    Max.-Head-Change    Column Row Layer    Max.-Flux-Residual            L2-New               L2-Old           Solver-Max-Delh
          0                 1          13            31   61     1       0.8930905511E+01      31   61    1       0.2746683569E+06      0.9087345805E+06      0.2654039225E+03      0.8930905511E+01
          0                 2          11            33   57     1      -0.8043987584E+00      33   57    1      -0.5179436111E+05      0.1337709315E+06      0.9087345805E+06     -0.8043987584E+00
          0                 3           9            31   60     2      -0.6741211329E-01      31   60    2      -0.3220691832E+04      0.5109974080E+04      0.1337709315E+06     -0.6741211329E-01
          0                 4           7            33   53     2       0.2619543496E-02      33   53    2       0.1571999083E+03      0.1712044471E+03      0.5109974080E+04      0.2619543496E-02

    ------------------------------------------------
       NWT REQUIRED            4 OUTER ITERATIONS 
       AND A TOTAL OF         40 INNER ITERATIONS.
    ------------------------------------------------

 NO OUTPUT CONTROL FOR STRESS PERIOD   71   TIME STEP    4

 SOLVING FOR HEAD 
                                                   Max.-Head-Change                        Max.-Flux-Residual
  Residual-Control   Outer-Iter.   Inner-Iter.     Column Row Layer    Max.-Head-Change    Column Row Layer    Max.-Flux-Residual            L2-New               L2-Old           Solver-Max-Delh
          0                 1          13            31   60     2       0.8133885969E+01      31   61    1       0.2247486178E+06      0.8640530340E+06      0.1712044471E+03      0.8133885969E+01
          0                 2          11            33   53     2       0.9411337840E+00      33   53    2       0.2802918266E+05      0.9382335511E+05      0.8640530340E+06      0.9411337840E+00
          0                 3           8            33   61     1      -0.3046790806E+00      33   61    1      -0.4190844400E+04      0.5311638743E+04      0.9382335511E+05     -0.3046790806E+00
          0                 4           3            33   61     1      -0.6051497615E-03      33   61    1      -0.8266828507E+01      0.8583515407E+01      0.5311638743E+04     -0.6051497615E-03

    ------------------------------------------------
       NWT REQUIRED            4 OUTER ITERATIONS 
       AND A TOTAL OF         35 INNER ITERATIONS.
    ------------------------------------------------

 NO OUTPUT CONTROL FOR STRESS PERIOD   71   TIME STEP    5

 SOLVING FOR HEAD 
                                                   Max.-Head-Change                        Max.-Flux-Residual
  Residual-Control   Outer-Iter.   Inner-Iter.     Column Row Layer    Max.-Head-Change    Column Row Layer    Max.-Flux-Residual            L2-New               L2-Old           Solver-Max-Delh
          0                 1          13            31   61     1       0.6433726907E+01      31   61    1       0.1905223842E+06      0.8397941363E+06      0.8583515407E+01      0.6433726907E+01
          0                 2          11            33   61     1      -0.3221178741E+01      33   61    1      -0.1308970018E+06      0.1718156721E+06      0.8397941363E+06     -0.3221178741E+01
          0                 3           7            33   59     2      -0.1589294217E+00      33   59    2      -0.5410587052E+04      0.7081628145E+04      0.1718156721E+06     -0.1589294217E+00
          0                 4           3            33   62     1       0.7057518199E-03      33   62    1       0.1088266838E+02      0.1497640490E+02      0.7081628145E+04      0.7057518199E-03

    ------------------------------------------------
       NWT REQUIRED            4 OUTER ITERATIONS 
       AND A TOTAL OF         34 INNER ITERATIONS.
    ------------------------------------------------

 NO OUTPUT CONTROL FOR STRESS PERIOD   71   TIME STEP    6

 SOLVING FOR HEAD 
                                                   Max.-Head-Change                        Max.-Flux-Residual
  Residual-Control   Outer-Iter.   Inner-Iter.     Column Row Layer    Max.-Head-Change    Column Row Layer    Max.-Flux-Residual            L2-New               L2-Old           Solver-Max-Delh
          0                 1          13            32   62     2       0.6782852252E+01      31   61    1       0.1611492730E+06      0.8086630258E+06      0.1497640490E+02      0.6782852252E+01
          0                 2          11            33   61     2       0.1273846393E+01      33   61    2       0.4267029376E+05      0.1024590767E+06      0.8086630258E+06      0.1273846393E+01
          0                 3           7            33   60     2       0.1597617923E+00      33   60    2       0.1110532893E+05      0.1182560093E+05      0.1024590767E+06      0.1597617923E+00
          0                 4           6            33   60     2       0.1435929214E-01      33   60    2       0.9630538233E+03      0.9675377623E+03      0.1182560093E+05      0.1435929214E-01
          0                 5           4            33   60     2       0.1290919279E-02      33   60    2       0.8656967214E+02      0.8697247619E+02      0.9675377623E+03      0.1290919279E-02

    ------------------------------------------------
       NWT REQUIRED            5 OUTER ITERATIONS 
       AND A TOTAL OF         41 INNER ITERATIONS.
    ------------------------------------------------

 NO OUTPUT CONTROL FOR STRESS PERIOD   71   TIME STEP    7

 SOLVING FOR HEAD 
                                                   Max.-Head-Change                        Max.-Flux-Residual
  Residual-Control   Outer-Iter.   Inner-Iter.     Column Row Layer    Max.-Head-Change    Column Row Layer    Max.-Flux-Residual            L2-New               L2-Old           Solver-Max-Delh
          0                 1          13            33   61     2       0.5187551265E+01      32   62    1       0.1418510256E+06      0.7924233991E+06      0.8697247619E+02      0.5187551265E+01
          0                 2          11            33   60     2       0.2777547175E+01      33   60    2       0.9139171212E+05      0.1210616523E+06      0.7924233991E+06      0.2777547175E+01
          0                 3           7            33   60     2      -0.2524448907E+00      33   60    2      -0.9135577335E+04      0.1019171028E+05      0.1210616523E+06     -0.2524448907E+00
          0                 4           5            31   62     2       0.5464534231E-02      31   62    2       0.3541342444E+03      0.3546424957E+03      0.1019171028E+05      0.5464534231E-02

    ------------------------------------------------
       NWT REQUIRED            4 OUTER ITERATIONS 
       AND A TOTAL OF         36 INNER ITERATIONS.
    ------------------------------------------------

 NO OUTPUT CONTROL FOR STRESS PERIOD   71   TIME STEP    8

 SOLVING FOR HEAD 
                                                   Max.-Head-Change                        Max.-Flux-Residual
  Residual-Control   Outer-Iter.   Inner-Iter.     Column Row Layer    Max.-Head-Change    Column Row Layer    Max.-Flux-Residual            L2-New               L2-Old           Solver-Max-Delh
          0                 1          13            32   62     1       0.4575517212E+01      32   62    1       0.1270338692E+06      0.7843827677E+06      0.3546424957E+03      0.4575517212E+01
          0                 2          11            31   62     2       0.3218540531E+01      31   62    2       0.9756865804E+05      0.1254575215E+06      0.7843827677E+06      0.3218540531E+01
          0                 3           7            31   62     2      -0.2929019791E+00      31   62    2      -0.9756865940E+04      0.1009914941E+05      0.1254575215E+06     -0.2929019791E+00
          0                 4           3            27   79     2       0.3668358083E-03      70   47    1       0.9302068818E+01      0.9421057820E+01      0.1009914941E+05      0.3668358083E-03

    ------------------------------------------------
       NWT REQUIRED            4 OUTER ITERATIONS 
       AND A TOTAL OF         34 INNER ITERATIONS.
    ------------------------------------------------

 NO OUTPUT CONTROL FOR STRESS PERIOD   71   TIME STEP    9

 SOLVING FOR HEAD 
                                                   Max.-Head-Change                        Max.-Flux-Residual
  Residual-Control   Outer-Iter.   Inner-Iter.     Column Row Layer    Max.-Head-Change    Column Row Layer    Max.-Flux-Residual            L2-New               L2-Old           Solver-Max-Delh
          0                 1          13            31   62     1       0.4493073342E+01      31   62    1       0.1267968502E+06      0.7753256246E+06      0.9421057820E+01      0.4493073342E+01
          0                 2          11            31   59     1      -0.1750098787E+01      31   59    1      -0.7592737671E+05      0.1106060044E+06      0.7753256246E+06     -0.1750098787E+01
          0                 3           8            29   56     2       0.7870447812E-01      29   56    2       0.6261773888E+04      0.6493300805E+04      0.1106060044E+06      0.7870447812E-01
          0                 4           6            29   56     2       0.7080337628E-02      29   56    2       0.5632461222E+03      0.5798802645E+03      0.6493300805E+04      0.7080337628E-02

    ------------------------------------------------
       NWT REQUIRED            4 OUTER ITERATIONS 
       AND A TOTAL OF         38 INNER ITERATIONS.
    ------------------------------------------------

 NO OUTPUT CONTROL FOR STRESS PERIOD   71   TIME STEP   10

 SOLVING FOR HEAD 
                                                   Max.-Head-Change                        Max.-Flux-Residual
  Residual-Control   Outer-Iter.   Inner-Iter.     Column Row Layer    Max.-Head-Change    Column Row Layer    Max.-Flux-Residual            L2-New               L2-Old           Solver-Max-Delh
          0                 1          13            31   59     2       0.4423790269E+01      31   62    1       0.1122550944E+06      0.7589665121E+06      0.5798802645E+03      0.4423790269E+01
          0                 2          11            24   58     3       0.2343636246E+01      30   60    1      -0.4380106724E+05      0.1024618284E+06      0.7589665121E+06      0.2343636246E+01
          0                 3           7            24   58     3      -0.2133403356E+00      24   58    3      -0.3358000931E+04      0.4729138041E+04      0.1024618284E+06     -0.2133403356E+00
          0                 4           5            30   57     2       0.1651427093E-02      30   57    2       0.1137127406E+03      0.1138768819E+03      0.4729138041E+04      0.1651427093E-02

    ------------------------------------------------
       NWT REQUIRED            4 OUTER ITERATIONS 
       AND A TOTAL OF         36 INNER ITERATIONS.
    ------------------------------------------------

 NO OUTPUT CONTROL FOR STRESS PERIOD   71   TIME STEP   11

 INTERPOLATION FOR HEAD OBS# 2185, ID 2355-71-350  CHANGED BECAUSE AT LEAST ONE
 NEIGHBORING CELL REQUIRED FOR INTERPOLATION IS DRY OR INACTIVE (OBS2BAS7SE)

 INTERPOLATION FOR HEAD OBS# 3610, ID 1370-71-365  CHANGED BECAUSE AT LEAST ONE
 NEIGHBORING CELL REQUIRED FOR INTERPOLATION IS DRY OR INACTIVE (OBS2BAS7SE)

 INTERPOLATION FOR HEAD OBS# 3699, ID 1479-71-365  CHANGED BECAUSE AT LEAST ONE
 NEIGHBORING CELL REQUIRED FOR INTERPOLATION IS DRY OR INACTIVE (OBS2BAS7SE)

 INTERPOLATION FOR HEAD OBS# 3712, ID 1471-71-365  CHANGED BECAUSE AT LEAST ONE
 NEIGHBORING CELL REQUIRED FOR INTERPOLATION IS DRY OR INACTIVE (OBS2BAS7SE)

 INTERPOLATION FOR HEAD OBS# 3772, ID 1405-71-365  CHANGED BECAUSE AT LEAST ONE
 NEIGHBORING CELL REQUIRED FOR INTERPOLATION IS DRY OR INACTIVE (OBS2BAS7SE)

 INTERPOLATION FOR HEAD OBS# 5429, ID 846-71-365   CHANGED BECAUSE AT LEAST ONE
 NEIGHBORING CELL REQUIRED FOR INTERPOLATION IS DRY OR INACTIVE (OBS2BAS7SE)

 INTERPOLATION FOR HEAD OBS# 7376, ID 451-71-336   CHANGED BECAUSE AT LEAST ONE
 NEIGHBORING CELL REQUIRED FOR INTERPOLATION IS DRY OR INACTIVE (OBS2BAS7SE)

 SOLVING FOR HEAD 
                                                   Max.-Head-Change                        Max.-Flux-Residual
  Residual-Control   Outer-Iter.   Inner-Iter.     Column Row Layer    Max.-Head-Change    Column Row Layer    Max.-Flux-Residual            L2-New               L2-Old           Solver-Max-Delh
          0                 1          13            33   61     1       0.3795363992E+01      32   62    1       0.1004652144E+06      0.7489053371E+06      0.1138768819E+03      0.3795363992E+01
          0                 2          11            30   60     2       0.9489077537E+00      30   60    2       0.3661687716E+05      0.9026284152E+05      0.7489053371E+06      0.9489077537E+00
          0                 3           7            30   60     2      -0.8526750563E-01      30   60    2      -0.3344672984E+04      0.5677593294E+04      0.9026284152E+05     -0.8526750563E-01
          0                 4           4            20   52     3       0.5444630740E-02      20   52    3       0.2698508741E+03      0.2698564750E+03      0.5677593294E+04      0.5444630740E-02

    ------------------------------------------------
       NWT REQUIRED            4 OUTER ITERATIONS 
       AND A TOTAL OF         35 INNER ITERATIONS.
    ------------------------------------------------

 OUTPUT CONTROL FOR STRESS PERIOD   71   TIME STEP   12
    SAVE BUDGET
    SAVE HEAD FOR LAYERS:   1  2  3
 UBDSV1 SAVING "         STORAGE" ON UNIT  39 AT TIME STEP 12, STRESS PERIOD  71
 UBDSV2 SAVING "   CONSTANT HEAD" ON UNIT  39 AT TIME STEP 12, STRESS PERIOD  71
 UBDSV1 SAVING "FLOW RIGHT FACE " ON UNIT  39 AT TIME STEP 12, STRESS PERIOD  71
 UBDSV1 SAVING "FLOW FRONT FACE " ON UNIT  39 AT TIME STEP 12, STRESS PERIOD  71
 UBDSV1 SAVING "FLOW LOWER FACE " ON UNIT  39 AT TIME STEP 12, STRESS PERIOD  71
 UBDSV3 SAVING "              ET" ON UNIT  39 AT TIME STEP 12, STRESS PERIOD  71
 UBDSV3 SAVING "        RECHARGE" ON UNIT  39 AT TIME STEP 12, STRESS PERIOD  71

 HEAD WILL BE SAVED ON UNIT   31 AT END OF TIME STEP   12, STRESS PERIOD   71
1
  VOLUMETRIC BUDGET FOR ENTIRE MODEL AT END OF TIME STEP   12, STRESS PERIOD  71
  ------------------------------------------------------------------------------

     CUMULATIVE VOLUMES      L**3       RATES FOR THIS TIME STEP      L**3/T
     ------------------                 ------------------------

           IN:                                      IN:
           ---                                      ---
             STORAGE = 76185952256.0000               STORAGE =      866914.8125
       CONSTANT HEAD = 26801760256.0000         CONSTANT HEAD =      971474.4375
               WELLS =   324179520.0000                 WELLS =           0.0000
                  ET =           0.0000                    ET =           0.0000
            RECHARGE =576598769664.0000              RECHARGE =    39439160.0000

            TOTAL IN =679910637568.0000              TOTAL IN =    41277548.0000

          OUT:                                     OUT:
          ----                                     ----
             STORAGE =208239034368.0000               STORAGE =    21375420.0000
       CONSTANT HEAD =178171297792.0000         CONSTANT HEAD =     7571796.5000
               WELLS =  1094437376.0000                 WELLS =       94345.0000
                  ET =292406231040.0000                    ET =    12235988.0000
            RECHARGE =           0.0000              RECHARGE =           0.0000

           TOTAL OUT =679911030784.0000             TOTAL OUT =    41277548.0000

            IN - OUT =     -393216.0000              IN - OUT =           0.0000

 PERCENT DISCREPANCY =          -0.00     PERCENT DISCREPANCY =           0.00






         TIME SUMMARY AT END OF TIME STEP   12 IN STRESS PERIOD   71
                    SECONDS     MINUTES      HOURS       DAYS        YEARS
                    -----------------------------------------------------------
   TIME STEP LENGTH 2.62800E+06  43800.      730.00      30.417     8.32763E-02
 STRESS PERIOD TIME 3.15360E+07 5.25600E+05  8760.0      365.00     0.99932    
         TOTAL TIME 2.24060E+09 3.73434E+07 6.22390E+05  25933.      71.000    
1

 HEAD AND DRAWDOWN OBSERVATIONS
 OBSERVATION       OBSERVED           SIMULATED
   NAME              VALUE              VALUE             DIFFERENCE
 --------------------------------------------------------------------
 3522-15-337     2965.0000000        2949.6013184        15.398681641    
 3489-20-74      2968.0000000        2945.2524414        22.747558594    
 3485-19-34      2966.0000000        2942.7780762        23.221923828    
 3465-20-300     2968.0000000        2933.2038574        34.796142578    
 3415-15-154     2955.0000000        2904.8864746        50.113525391    
 3314-43-7       2830.0000000        2802.7333984        27.266601562    
 3241-5-82       2709.0000000        2714.9909668       -5.9909667969    
 3384-7-41       1626.0000000        1644.3979492       -18.397949219    
 3384-12-10      1613.0000000        1624.5677490       -11.567749023    
 3384-16-340     1572.0000000        1593.7924805       -21.792480469    
 3384-21-335     1549.0000000        1566.1256104       -17.125610352    
 3384-27-13      1531.0000000        1549.7310791       -18.731079102    
 3384-32-5       1517.0000000        1535.3826904       -18.382690430    
 3384-36-349     1499.0000000        1519.2535400       -20.253540039    
 3400-55-321     1558.0000000        1667.0291748       -109.02917480    
 3400-60-312     1568.0000000        1672.7844238       -104.78442383    
 3400-65-363     1583.0000000        1682.0708008       -99.070800781    
 3400-71-349     1600.0000000        1693.1970215       -93.197021484    
 3401-55-321     1613.0000000        1664.2686768       -51.268676758    
 3401-60-312     1621.0000000        1669.2144775       -48.214477539    
 3401-65-363     1631.0000000        1677.4216309       -46.421630859    
 3401-71-349     1650.0000000        1688.9194336       -38.919433594    
 3397-11-313     1674.0000000        1700.9735107       -26.973510742    
 3361-21-339     1555.0000000        1566.0727539       -11.072753906    
 3361-32-5       1524.0000000        1534.2781982       -10.278198242    
 3346-16-340     1573.0000000        1593.4467773       -20.446777344    
 3346-21-339     1537.0000000        1565.1690674       -28.169067383    
 3346-32-5       1495.0000000        1530.2302246       -35.230224609    
 3346-37-349     1474.0000000        1513.7043457       -39.704345703    
 3346-49-54      1506.0000000        1534.2098389       -28.209838867    
 3346-60-319     1517.0000000        1552.0136719       -35.013671875    
 3346-65-298     1529.0000000        1568.5799561       -39.579956055    
 3346-71-13      1544.0000000        1577.6804199       -33.680419922    
 3376-6-41       1665.0000000        1682.4490967       -17.449096680    
 3376-12-46      1648.0000000        1667.8300781       -19.830078125    
 3376-16-362     1635.0000000        1648.1530762       -13.153076172    
 3376-21-336     1591.0000000        1628.0180664       -37.018066406    
 3376-27-12      1561.0000000        1612.7518311       -51.751831055    
 3376-38-1       1527.0000000        1591.2274170       -64.227416992    
 3327-56-26      1579.0000000        1641.0642090       -62.064208984    
 3327-66-18      1601.0000000        1660.0506592       -59.050659180    
 3306-1-32       1688.0000000        1701.6431885       -13.643188477    
 3299-38-41      1546.0000000        1633.4133301       -87.413330078    
 3311-15-337     2982.0000000        2931.2282715        50.771728516    
 3313-32-7       1579.0000000        1662.7131348       -83.713134766    
 3313-38-1       1560.0000000        1657.4000244       -97.400024414    
 3313-56-26      1601.0000000        1674.7451172       -73.745117188    
 3313-66-18      1626.0000000        1690.5246582       -64.524658203    
 3303-56-26      1600.0000000        1670.9204102       -70.920410156    
 3303-66-18      1624.0000000        1687.8688965       -63.868896484    
 3302-12-32      1680.0000000        1710.1019287       -30.101928711    
 3302-56-26      1606.0000000        1684.2138672       -78.213867188    
 3302-66-18      1633.0000000        1699.3248291       -66.324829102    
 3320-2-305      1680.0000000        1689.0183105       -9.0183105469    
 3324-26-339     1550.0000000        1590.6943359       -40.694335938    
 3312-16-335     1604.0000000        1637.5894775       -33.589477539    
 3312-21-335     1576.0000000        1614.4080811       -38.408081055    
 3312-32-1       1537.0000000        1584.4132080       -47.413208008    
 3312-36-51      1523.0000000        1574.9879150       -51.987915039    
 3294-1-60       1692.0000000        1703.5216064       -11.521606445    
 3291-16-362     1650.0000000        1676.0258789       -26.025878906    
 3288-12-32      1671.0000000        1677.9044189       -6.9044189453    
 3288-21-335     1622.0000000        1642.0336914       -20.033691406    
 3288-32-7       1602.0000000        1617.1240234       -15.124023438    
 3282-21-336     1628.0000000        1672.7346191       -44.734619141    
 3282-32-7       1604.0000000        1654.7404785       -50.740478516    
 3282-38-10      1584.0000000        1650.3962402       -66.396240234    
 3285-5-179      1699.0000000        1728.1422119       -29.142211914    
 3285-11-25      1690.0000000        1723.9730225       -33.973022461    
 3285-16-341     1666.0000000        1715.2725830       -49.272583008    
 3285-21-336     1639.0000000        1702.3298340       -63.329833984    
 3279-12-39      1679.0000000        1723.8782959       -44.878295898    
 3279-16-362     1650.0000000        1717.5811768       -67.581176758    
 3279-21-341     1639.0000000        1704.8193359       -65.819335938    
 3279-27-28      1624.0000000        1699.4436035       -75.443603516    
 3281-21-336     1635.0000000        1703.9942627       -68.994262695    
 3281-37-350     1573.0000000        1689.5357666       -116.53576660    
 3268-21-274     1652.0000000        1723.4970703       -71.497070312    
 3268-38-6       1576.0000000        1713.8903809       -137.89038086    
 3259-16-348     1684.0000000        1742.2795410       -58.279541016    
 3259-32-7       1619.0000000        1724.7213135       -105.72131348    
 3259-36-350     1606.0000000        1724.4403076       -118.44030762    
 3237-1-365      1723.0000000        1757.4697266       -34.469726562    
 3237-3-355      1721.0000000        1756.9172363       -35.917236328    
 3237-12-59      1713.0000000        1754.8330078       -41.833007812    
 3234-6-284      1719.0000000        1757.8736572       -38.873657227    
 3234-12-32      1710.0000000        1755.0930176       -45.093017578    
 3234-16-348     1689.0000000        1753.5089111       -64.508911133    
 3231-21-341     1661.0000000        1743.0239258       -82.023925781    
 3231-27-12      1642.0000000        1741.1058350       -99.105834961    
 3231-38-3       1595.0000000        1737.4075928       -142.40759277    
 3382-48-363     1604.0000000        1679.4000244       -75.400024414    
 3383-48-363     1619.0000000        1679.4000244       -60.400024414    
 3363-56-23      1632.0000000        1698.6164551       -66.616455078    
 3363-66-18      1646.0000000        1709.8511963       -63.851196289    
 3364-11-342     1694.0000000        1722.4156494       -28.415649414    
 3364-16-362     1671.0000000        1714.1723633       -43.172363281    
 3364-21-341     1646.0000000        1705.0092773       -59.009277344    
 3364-27-28      1639.0000000        1695.6165771       -56.616577148    
 3364-32-4       1621.0000000        1689.3891602       -68.389160156    
 3364-36-349     1617.0000000        1684.2272949       -67.227294922    
 3364-43-19      1616.0000000        1682.5012207       -66.501220703    
 3364-49-54      1622.0000000        1686.8635254       -64.863525391    
 3364-56-25      1626.0000000        1692.0168457       -66.016845703    
 3364-60-319     1628.0000000        1696.1007080       -68.100708008    
 3364-65-298     1635.0000000        1703.1784668       -68.178466797    
 3364-71-13      1648.0000000        1713.2010498       -65.201049805    
 3364-71-365     1652.0000000        1714.7833252       -62.783325195    
 3370-56-25      1623.0000000        1683.9188232       -60.918823242    
 3370-61-72      1628.0000000        1688.7628174       -60.762817383    
 3370-66-18      1637.0000000        1695.9843750       -58.984375000    
 3353-21-335     1659.0000000        1706.6500244       -47.650024414    
 3353-27-12      1646.0000000        1697.7082520       -51.708251953    
 3353-56-25      1627.0000000        1695.9652100       -68.965209961    
 3353-66-18      1635.0000000        1707.5762939       -72.576293945    
 3351-56-25      1628.0000000        1698.1353760       -70.135375977    
 3351-61-72      1629.0000000        1702.5750732       -73.575073242    
 3351-66-18      1639.0000000        1709.5803223       -70.580322266    
 3310-56-23      1643.0000000        1745.8489990       -102.84899902    
 3307-56-23      1644.0000000        1754.0020752       -110.00207520    
 3307-61-73      1649.0000000        1757.5684814       -108.56848145    
 3307-66-20      1676.0000000        1763.3150635       -87.315063477    
 3292-56-25      1630.0000000        1725.6702881       -95.670288086    
 3292-61-73      1638.0000000        1729.4807129       -91.480712891    
 3292-66-19      1663.0000000        1737.4913330       -74.491333008    
 3278-11-296     1706.0000000        1747.0299072       -41.029907227    
 3278-16-343     1693.0000000        1742.7181396       -49.718139648    
 3278-21-340     1664.0000000        1734.4262695       -70.426269531    
 3278-27-12      1658.0000000        1730.7862549       -72.786254883    
 3278-32-4       1650.0000000        1726.4582520       -76.458251953    
 3278-36-350     1648.0000000        1725.3029785       -77.302978516    
 3278-43-19      1650.0000000        1729.1693115       -79.169311523    
 3278-49-54      1656.0000000        1736.2696533       -80.269653320    
 3278-56-25      1656.0000000        1743.9553223       -87.955322266    
 3278-60-319     1660.0000000        1746.2709961       -86.270996094    
 3278-65-301     1670.0000000        1753.4519043       -83.451904297    
 3278-71-13      1684.0000000        1764.5062256       -80.506225586    
 3278-71-365     1686.0000000        1766.0491943       -80.049194336    
 3290-56-25      1638.0000000        1739.9447021       -101.94470215    
 3290-61-73      1647.0000000        1743.0384521       -96.038452148    
 3290-66-19      1671.0000000        1750.2127686       -79.212768555    
 3250-12-32      1737.0000000        1780.5578613       -43.557861328    
 3250-16-363     1711.0000000        1780.4616699       -69.461669922    
 3250-21-335     1688.0000000        1777.1104736       -89.110473633    
 3250-32-7       1652.0000000        1776.2365723       -124.23657227    
 3250-36-352     1632.0000000        1777.7518311       -145.75183105    
 3308-56-25      1672.0000000        1798.6932373       -126.69323730    
 3308-61-73      1673.0000000        1800.7181396       -127.71813965    
 3308-66-20      1698.0000000        1807.0949707       -109.09497070    
 3249-16-363     1709.0000000        1778.0424805       -69.042480469    
 3249-21-340     1688.0000000        1774.2899170       -86.289916992    
 3249-36-352     1660.0000000        1774.3157959       -114.31579590    
 3249-56-25      1688.0000000        1796.1343994       -108.13439941    
 3249-61-73      1698.0000000        1798.0299072       -100.02990723    
 3233-3-355      1744.0000000        1785.8747559       -41.874755859    
 3233-6-341      1743.0000000        1786.7923584       -43.792358398    
 3233-12-59      1737.0000000        1786.2868652       -49.286865234    
 3233-16-311     1725.0000000        1786.7169189       -61.716918945    
 3230-16-348     1722.0000000        1790.2769775       -68.276977539    
 3230-21-340     1705.0000000        1788.3666992       -83.366699219    
 3230-27-1       1694.0000000        1790.5128174       -96.512817383    
 3230-32-7       1702.0000000        1789.3653564       -87.365356445    
 3230-36-352     1682.0000000        1791.5302734       -109.53027344    
 3230-56-25      1711.0000000        1814.5089111       -103.50891113    
 3230-61-72      1716.0000000        1816.2596436       -100.25964355    
 3229-17-4       1729.0000000        1791.8082275       -62.808227539    
 3247-61-73      1711.0000000        1814.2550049       -103.25500488    
 3247-66-20      1715.0000000        1820.5559082       -105.55590820    
 3368-56-25      1668.0000000        1778.6209717       -110.62097168    
 3333-12-10      1744.0000000        1783.9832764       -39.983276367    
 3333-16-343     1741.0000000        1783.1688232       -42.168823242    
 3333-32-85      1693.0000000        1776.9274902       -83.927490234    
 3333-35-53      1685.0000000        1776.1761475       -91.176147461    
 3332-49-54      1671.0000000        1780.7032471       -109.70324707    
 3332-56-26      1674.0000000        1786.0244141       -112.02441406    
 3332-60-319     1679.0000000        1790.1796875       -111.17968750    
 3332-65-298     1687.0000000        1794.5334473       -107.53344727    
 3332-71-13      1699.0000000        1801.6761475       -102.67614746    
 3332-71-365     1701.0000000        1803.4002686       -102.40026855    
 3330-56-25      1659.0000000        1782.8547363       -123.85473633    
 3315-48-300     1659.0000000        1774.9254150       -115.92541504    
 3315-55-321     1664.0000000        1780.8166504       -116.81665039    
 3315-60-312     1666.0000000        1784.7768555       -118.77685547    
 3315-65-363     1676.0000000        1790.0292969       -114.02929688    
 3315-71-351     1691.0000000        1800.6374512       -109.63745117    
 3316-48-300     1658.0000000        1776.1060791       -118.10607910    
 3316-55-321     1663.0000000        1781.8559570       -118.85595703    
 3316-60-312     1666.0000000        1786.1060791       -120.10607910    
 3316-65-363     1677.0000000        1790.9129639       -113.91296387    
 3316-71-351     1692.0000000        1801.2178955       -109.21789551    
 3284-56-25      1689.0000000        1841.5197754       -152.51977539    
 3275-38-12      1709.0000000        1835.6041260       -126.60412598    
 3287-38-24      1676.0000000        1795.2961426       -119.29614258    
 3265-48-364     1671.0000000        1823.7486572       -152.74865723    
 3265-56-25      1676.0000000        1832.0377197       -156.03771973    
 3228-56-20      1682.0000000        1847.0953369       -165.09533691    
 3228-61-73      1697.0000000        1849.3464355       -152.34643555    
 3228-66-19      1727.0000000        1856.9655762       -129.96557617    
 3347-20-74      2968.0000000        2945.5744629        22.425537109    
 3347-26-157     2967.0000000        2958.8498535        8.1501464844    
 3347-37-33      2963.0000000        2958.8498535        4.1501464844    
 3347-43-82      2967.0000000        2964.5544434        2.4455566406    
 3347-48-336     2971.0000000        2969.0012207        1.9987792969    
 3347-56-23      2969.0000000        2971.4326172       -2.4326171875    
 3347-61-62      2971.0000000        2971.3610840      -0.36108398438    
 3347-65-299     2969.0000000        2976.8334961       -7.8334960938    
 3347-71-12      2966.0000000        2978.4709473       -12.470947266    
 3347-71-365     2966.0000000        2978.3549805       -12.354980469    
 3378-15-337     2965.0000000        2959.8144531        5.1855468750    
 3378-26-127     2971.0000000        2978.0610352       -7.0610351562    
 3378-33-312     2954.0000000        2966.1394043       -12.139404297    
 3378-43-82      2971.0000000        2985.6174316       -14.617431641    
 3378-48-337     2976.0000000        2977.4050293       -1.4050292969    
 3378-56-23      2976.0000000        2979.4978027       -3.4978027344    
 3378-61-62      2976.0000000        2986.3544922       -10.354492188    
 3378-66-18      2972.0000000        2987.0551758       -15.055175781    
 3336-71-63      2981.0000000        2992.1169434       -11.116943359    
 3343-19-34      2966.0000000        2942.6562500        23.343750000    
 3343-26-121     2966.0000000        2951.5615234        14.438476562    
 3343-33-311     2952.0000000        2956.5544434       -4.5544433594    
 3343-43-82      2975.0000000        2960.7287598        14.271240234    
 3343-48-336     2978.0000000        2966.1689453        11.831054688    
 3343-56-25      2977.0000000        2968.7290039        8.2709960938    
 3343-61-62      2975.0000000        2969.2561035        5.7438964844    
 3343-66-24      2971.0000000        2973.7167969       -2.7167968750    
 3343-71-63      2963.0000000        2976.0385742       -13.038574219    
 3322-20-300     2968.0000000        2935.8029785        32.197021484    
 3322-26-127     2967.0000000        2944.3872070        22.612792969    
 3322-48-337     2973.0000000        2958.9116211        14.088378906    
 3322-56-25      2963.0000000        2961.2451172        1.7548828125    
 3322-61-60      2964.0000000        2961.1740723        2.8259277344    
 3317-43-85      2959.0000000        2952.4016113        6.5983886719    
 3317-56-25      2964.0000000        2959.8122559        4.1877441406    
 3317-61-60      2961.0000000        2959.6953125        1.3046875000    
 3317-66-27      2959.0000000        2964.8864746       -5.8864746094    
 3317-71-64      2962.0000000        2966.7614746       -4.7614746094    
 3300-56-26      2995.0000000        2984.7731934        10.226806641    
 3289-56-26      3009.0000000        2965.0532227        43.946777344    
 3289-61-65      2998.0000000        2964.4394531        33.560546875    
 3276-56-26      3018.0000000        2965.5178223        52.482177734    
 3270-56-26      2964.0000000        2986.0673828       -22.067382812    
 3272-15-154     2955.0000000        2903.8854980        51.114501953    
 3272-26-125     2957.0000000        2917.7304688        39.269531250    
 3272-37-36      2947.0000000        2924.4467773        22.553222656    
 3272-43-27      2962.0000000        2929.1184082        32.881591797    
 3272-48-336     2970.0000000        2935.2883301        34.711669922    
 3272-56-26      2966.0000000        2937.3525391        28.647460938    
 3272-61-60      2962.0000000        2936.7836914        25.216308594    
 3272-71-12      2947.0000000        2942.0861816        4.9138183594    
 3266-56-26      2956.0000000        2921.7832031        34.216796875    
 3260-33-313     3027.0000000        2993.1684570        33.831542969    
 3260-48-334     3050.0000000        3004.8127441        45.187255859    
 3260-56-26      3044.0000000        3008.0605469        35.939453125    
 3222-38-6       1714.0000000        1801.8327637       -87.832763672    
 3213-12-324     1725.0000000        1782.6784668       -57.678466797    
 3213-16-335     1716.0000000        1784.0231934       -68.023193359    
 3213-21-335     1699.0000000        1780.1993408       -81.199340820    
 3213-32-7       1680.0000000        1780.0349121       -100.03491211    
 3213-38-10      1660.0000000        1783.0878906       -123.08789062    
 3213-56-19      1689.0000000        1805.0712891       -116.07128906    
 3205-2-230      1730.0000000        1776.6971436       -46.697143555    
 3205-22-37      1683.0000000        1771.8194580       -88.819458008    
 3191-2-188      1745.0000000        1781.7104492       -36.710449219    
 3178-17-4       1713.0000000        1787.8945312       -74.894531250    
 3178-22-37      1688.0000000        1784.2612305       -96.261230469    
 3178-32-85      1649.0000000        1785.3878174       -136.38781738    
 3178-36-65      1610.0000000        1786.9036865       -176.90368652    
 3178-42-349     1623.0000000        1794.6080322       -171.60803223    
 3178-48-341     1643.0000000        1802.2406006       -159.24060059    
 3178-56-23      1655.0000000        1810.2906494       -155.29064941    
 3178-60-319     1671.0000000        1812.0869141       -141.08691406    
 3177-17-4       1713.0000000        1792.9069824       -79.906982422    
 3176-11-297     1743.0000000        1792.4594727       -49.459472656    
 3176-16-342     1718.0000000        1795.0183105       -77.018310547    
 3176-21-342     1691.0000000        1792.1945801       -101.19458008    
 3176-32-7       1633.0000000        1793.6643066       -160.66430664    
 3176-34-339     1628.0000000        1794.8262939       -166.82629395    
 3174-21-335     1695.0000000        1802.2199707       -107.21997070    
 3174-56-19      1680.0000000        1833.5264893       -153.52648926    
 3174-61-60      1690.0000000        1835.1403809       -145.14038086    
 3174-66-24      1723.0000000        1841.7995605       -118.79956055    
 3188-2-335      1755.0000000        1805.7199707       -50.719970703    
 3188-6-341      1754.0000000        1806.9045410       -52.904541016    
 3188-10-350     1750.0000000        1807.0656738       -57.065673828    
 3199-38-6       1636.0000000        1825.8082275       -189.80822754    
 3199-48-337     1674.0000000        1841.4755859       -167.47558594    
 3199-61-60      1705.0000000        1852.3532715       -147.35327148    
 3175-48-337     1664.0000000        1838.4674072       -174.46740723    
 3175-56-19      1686.0000000        1847.6165771       -161.61657715    
 3175-66-24      1729.0000000        1856.7462158       -127.74621582    
 3196-56-19      1688.0000000        1853.5810547       -165.58105469    
 3171-21-335     1716.0000000        1821.6517334       -105.65173340    
 3171-26-313     1672.0000000        1825.1661377       -153.16613770    
 3171-48-337     1698.0000000        1849.4160156       -151.41601562    
 3173-48-337     1672.0000000        1848.8239746       -176.82397461    
 3173-56-19      1692.0000000        1858.3361816       -166.33618164    
 3173-61-60      1701.0000000        1859.6918945       -158.69189453    
 3173-66-20      1730.0000000        1868.4310303       -138.43103027    
 3172-56-19      1682.0000000        1841.4973145       -159.49731445    
 3172-61-60      1691.0000000        1842.9509277       -151.95092773    
 3172-66-24      1723.0000000        1850.1810303       -127.18103027    
 3163-12-91      1748.0000000        1812.8347168       -64.834716797    
 3163-21-335     1701.0000000        1817.0856934       -116.08569336    
 3197-42-351     1684.0000000        1807.5306396       -123.53063965    
 3197-48-348     1700.0000000        1815.6052246       -115.60522461    
 3197-56-4       1699.0000000        1824.1394043       -125.13940430    
 3197-61-5       1719.0000000        1825.7048340       -106.70483398    
 3197-65-361     1745.0000000        1832.6839600       -87.683959961    
 3197-71-355     1748.0000000        1849.0388184       -101.03881836    
 3170-16-348     1732.0000000        1806.5476074       -74.547607422    
 3170-21-342     1703.0000000        1805.7395020       -102.73950195    
 3170-38-6       1681.0000000        1814.1818848       -133.18188477    
 3170-42-351     1737.0000000        1821.2923584       -84.292358398    
 3170-48-348     1694.0000000        1829.3881836       -135.38818359    
 3170-55-354     1703.0000000        1838.0655518       -135.06555176    
 3170-61-5       1725.0000000        1839.3040771       -114.30407715    
 3170-65-361     1751.0000000        1846.2259521       -95.225952148    
 3170-71-355     1754.0000000        1863.3101807       -109.31018066    
 3139-21-343     1698.0000000        1808.3336182       -110.33361816    
 3139-71-355     1747.0000000        1866.3798828       -119.37988281    
 3143-17-5       1732.0000000        1812.3411865       -80.341186523    
 3143-22-37      1708.0000000        1812.0852051       -104.08520508    
 3143-27-31      1695.0000000        1816.0562744       -121.05627441    
 3143-55-354     1694.0000000        1846.3046875       -152.30468750    
 3143-61-5       1720.0000000        1847.4957275       -127.49572754    
 3143-65-361     1757.0000000        1854.6403809       -97.640380859    
 3143-71-355     1760.0000000        1872.3701172       -112.37011719    
 3166-1-1        1748.0000000        1791.2213135       -43.221313477    
 3166-11-335     1738.0000000        1791.7587891       -53.758789062    
 3166-21-335     1680.0000000        1790.1588135       -110.15881348    
 3100-16-338     1730.0000000        1806.0224609       -76.022460938    
 3100-21-335     1703.0000000        1806.3277588       -103.32775879    
 3100-43-60      1625.0000000        1820.8979492       -195.89794922    
 3100-55-354     1652.0000000        1837.2377930       -185.23779297    
 3100-61-5       1659.0000000        1840.8126221       -181.81262207    
 3100-66-20      1692.0000000        1845.7928467       -153.79284668    
 3100-71-355     1709.0000000        1862.4307861       -153.43078613    
 2939-42-351     1635.0000000        1824.0787354       -189.07873535    
 2939-61-5       1669.0000000        1842.6005859       -173.60058594    
 2939-70-352     1725.0000000        1861.7282715       -136.72827148    
 2939-71-355     1727.0000000        1864.3229980       -137.32299805    
 3099-21-335     1697.0000000        1807.1336670       -110.13366699    
 3099-61-5       1665.0000000        1841.9603271       -176.96032715    
 3099-66-20      1698.0000000        1847.2012939       -149.20129395    
 3099-71-355     1723.0000000        1864.0123291       -141.01232910    
 3113-1-59       1773.0000000        1811.5465088       -38.546508789    
 3113-6-341      1768.0000000        1812.9852295       -44.985229492    
 3113-12-362     1752.0000000        1813.3913574       -61.391357422    
 3113-22-37      1703.0000000        1817.2631836       -114.26318359    
 3113-27-31      1697.0000000        1821.2598877       -124.25988770    
 3113-37-341     1653.0000000        1828.2410889       -175.24108887    
 3113-42-349     1684.0000000        1836.0521240       -152.05212402    
 3113-48-341     1664.0000000        1844.6021729       -180.60217285    
 3113-55-354     1694.0000000        1852.9234619       -158.92346191    
 3113-60-319     1716.0000000        1853.9377441       -137.93774414    
 3113-65-298     1744.0000000        1861.0614014       -117.06140137    
 3113-71-355     1757.0000000        1879.8657227       -122.86572266    
 3097-12-170     1744.0000000        1817.4788818       -73.478881836    
 3097-17-5       1723.0000000        1820.9259033       -97.925903320    
 3097-42-351     1664.0000000        1841.8549805       -177.85498047    
 3097-48-348     1679.0000000        1850.7788086       -171.77880859    
 3097-55-354     1696.0000000        1858.9370117       -162.93701172    
 3097-61-5       1718.0000000        1860.2945557       -142.29455566    
 3097-65-361     1750.0000000        1867.7912598       -117.79125977    
 3097-71-355     1760.0000000        1886.8054199       -126.80541992    
 3095-42-351     1666.0000000        1840.9188232       -174.91882324    
 3095-48-348     1682.0000000        1849.8041992       -167.80419922    
 3095-55-354     1698.0000000        1857.9449463       -159.94494629    
 3095-61-5       1720.0000000        1859.3109131       -139.31091309    
 3095-65-361     1752.0000000        1866.7073975       -114.70739746    
 3095-71-355     1761.0000000        1885.6160889       -124.61608887    
 3096-8-283      1773.0000000        1824.0861816       -51.086181641    
 3096-17-5       1736.0000000        1828.5698242       -92.569824219    
 3096-21-335     1708.0000000        1829.4569092       -121.45690918    
 3135-8-282      1775.0000000        1825.7648926       -50.764892578    
 3135-11-355     1766.0000000        1825.1921387       -59.192138672    
 3135-16-349     1739.0000000        1829.9300537       -90.930053711    
 3135-21-312     1708.0000000        1830.9058838       -122.90588379    
 3135-26-292     1680.0000000        1835.3286133       -155.32861328    
 3135-38-5       1641.0000000        1844.9506836       -203.95068359    
 3135-48-337     1678.0000000        1862.3107910       -184.31079102    
 3135-56-19      1700.0000000        1871.7863770       -171.78637695    
 3135-61-60      1717.0000000        1873.0904541       -156.09045410    
 3121-55-354     1713.0000000        1868.6220703       -155.62207031    
 3121-61-5       1724.0000000        1869.3629150       -145.36291504    
 3121-66-20      1760.0000000        1879.6499023       -119.64990234    
 3121-71-365     1772.0000000        1899.6710205       -127.67102051    
 3059-10-57      1779.0000000        1838.6400146       -59.640014648    
 3059-17-5       1744.0000000        1843.5155029       -99.515502930    
 3059-27-31      1693.0000000        1850.1936035       -157.19360352    
 3059-37-33      1717.0000000        1860.5384521       -143.53845215    
 3059-42-349     1681.0000000        1871.2781982       -190.27819824    
 3059-48-342     1700.0000000        1881.1822510       -181.18225098    
 3059-56-20      1720.0000000        1890.0806885       -170.08068848    
 3059-60-319     1742.0000000        1891.1356201       -149.13562012    
 3059-65-301     1777.0000000        1904.5805664       -127.58056641    
 3059-71-365     1787.0000000        1927.8751221       -140.87512207    
 3078-21-335     1709.0000000        1832.9860840       -123.98608398    
 3080-11-297     1762.0000000        1821.0161133       -59.016113281    
 3075-56-20      1716.0000000        1875.7210693       -159.72106934    
 3089-2-339      1774.0000000        1813.5556641       -39.555664062    
 3089-6-341      1772.0000000        1814.5354004       -42.535400391    
 3089-12-362     1763.0000000        1815.0852051       -52.085205078    
 3089-16-313     1745.0000000        1817.6003418       -72.600341797    
 3089-42-351     1693.0000000        1837.5251465       -144.52514648    
 3089-65-361     1743.0000000        1862.4042969       -119.40429688    
 3089-71-355     1755.0000000        1880.8560791       -125.85607910    
 3053-11-297     1767.0000000        1821.5670166       -54.567016602    
 3053-16-349     1741.0000000        1823.9013672       -82.901367188    
 3053-22-37      1710.0000000        1825.0523682       -115.05236816    
 3053-32-85      1668.0000000        1831.9300537       -163.93005371    
 3053-42-351     1660.0000000        1846.0384521       -186.03845215    
 3053-48-348     1676.0000000        1855.9785156       -179.97851562    
 3053-55-353     1689.0000000        1863.3815918       -174.38159180    
 3053-61-5       1706.0000000        1865.6226807       -159.62268066    
 3053-65-361     1735.0000000        1871.8698730       -136.86987305    
 3053-71-355     1752.0000000        1891.0770264       -139.07702637    
 3050-55-353     1689.0000000        1863.5953369       -174.59533691    
 3050-61-5       1706.0000000        1865.8375244       -159.83752441    
 3050-65-361     1735.0000000        1872.0903320       -137.09033203    
 3050-71-355     1752.0000000        1891.3132324       -139.31323242    
 3076-37-33      1618.0000000        1834.5076904       -216.50769043    
 3076-42-349     1656.0000000        1843.4932861       -187.49328613    
 3076-48-342     1676.0000000        1853.4353027       -177.43530273    
 3076-56-23      1695.0000000        1861.0754395       -166.07543945    
 3076-61-60      1701.0000000        1863.2843018       -162.28430176    
 3076-66-24      1742.0000000        1870.5803223       -128.58032227    
 3077-55-354     1659.0000000        1843.9160156       -184.91601562    
 3077-61-5       1665.0000000        1846.5062256       -181.50622559    
 3077-66-20      1690.0000000        1851.7440186       -161.74401855    
 3077-71-355     1718.0000000        1868.8193359       -150.81933594    
 3065-48-348     1663.0000000        1839.1718750       -176.17187500    
 3021-1-107      1784.0000000        1819.0531006       -35.053100586    
 3021-7-3        1782.0000000        1819.2813721       -37.281372070    
 3020-7-3        1781.0000000        1819.1093750       -38.109375000    
 3020-12-59      1775.0000000        1819.7211914       -44.721191406    
 3020-16-314     1755.0000000        1820.5983887       -65.598388672    
 3020-22-37      1731.0000000        1821.2573242       -90.257324219    
 3020-27-31      1697.0000000        1824.6486816       -127.64868164    
 2989-12-59      1780.0000000        1830.3583984       -50.358398438    
 2995-16-313     1748.0000000        1846.5292969       -98.529296875    
 2995-22-37      1734.0000000        1848.3740234       -114.37402344    
 2995-27-31      1719.0000000        1853.8156738       -134.81567383    
 2995-32-85      1723.0000000        1858.7734375       -135.77343750    
 3201-48-300     1676.0000000        1874.1820068       -198.18200684    
 3201-55-321     1685.0000000        1882.6750488       -197.67504883    
 3201-60-312     1692.0000000        1885.1397705       -193.13977051    
 3201-65-363     1706.0000000        1897.1324463       -191.13244629    
 3201-71-10      1726.0000000        1916.1528320       -190.15283203    
 3202-48-300     1678.0000000        1871.0549316       -193.05493164    
 3202-55-321     1687.0000000        1879.7027588       -192.70275879    
 3202-60-312     1696.0000000        1882.2664795       -186.26647949    
 3202-65-363     1720.0000000        1893.1750488       -173.17504883    
 3202-71-10      1745.0000000        1912.1029053       -167.10290527    
 3200-21-335     1763.0000000        1869.7501221       -106.75012207    
 3200-32-6       1728.0000000        1878.3850098       -150.38500977    
 3200-36-351     1712.0000000        1884.3491211       -172.34912109    
 3200-49-54      1695.0000000        1903.6601562       -208.66015625    
 3200-56-24      1699.0000000        1911.2722168       -212.27221680    
 3200-60-319     1706.0000000        1914.4758301       -208.47583008    
 3200-65-298     1718.0000000        1926.3459473       -208.34594727    
 3200-71-365     1736.0000000        1951.0206299       -215.02062988    
 3154-1-337      1791.0000000        1844.7495117       -53.749511719    
 3154-6-286      1782.0000000        1845.7470703       -63.747070312    
 3154-11-298     1778.0000000        1846.7476807       -68.747680664    
 3154-16-358     1742.0000000        1850.7857666       -108.78576660    
 3154-21-343     1712.0000000        1853.3602295       -141.36022949    
 3154-32-85      1660.0000000        1862.2578125       -202.25781250    
 3154-37-33      1649.0000000        1870.1909180       -221.19091797    
 3154-42-349     1651.0000000        1880.7412109       -229.74121094    
 3150-48-337     1681.0000000        1889.5980225       -208.59802246    
 3150-56-23      1704.0000000        1899.3526611       -195.35266113    
 3150-60-319     1720.0000000        1900.5535889       -180.55358887    
 3150-65-298     1752.0000000        1916.1961670       -164.19616699    
 3150-71-11      1775.0000000        1939.0338135       -164.03381348    
 3150-71-365     1776.0000000        1941.4567871       -165.45678711    
 3158-12-85      1766.0000000        1845.7490234       -79.749023438    
 3158-16-342     1740.0000000        1850.0714111       -110.07141113    
 3158-21-346     1712.0000000        1852.7573242       -140.75732422    
 3158-56-25      1700.0000000        1898.2303467       -198.23034668    
 3158-61-55      1720.0000000        1899.8183594       -179.81835938    
 3158-66-19      1753.0000000        1915.5009766       -162.50097656    
 3179-8-1        1777.0000000        1829.1547852       -52.154785156    
 3151-12-33      1773.0000000        1840.3406982       -67.340698242    
 3151-16-342     1740.0000000        1845.6345215       -105.63452148    
 3151-21-346     1717.0000000        1847.9290771       -130.92907715    
 3151-56-23      1705.0000000        1893.0659180       -188.06591797    
 3151-61-55      1725.0000000        1894.3442383       -169.34423828    
 3151-66-18      1758.0000000        1909.4582520       -151.45825195    
 3167-34-152     1703.0000000        1841.1274414       -138.12744141    
 3103-38-3       1652.0000000        1865.2559814       -213.25598145    
 3101-66-24      1760.0000000        1911.3632812       -151.36328125    
 3105-8-1        1789.0000000        1849.2509766       -60.250976562    
 3105-56-23      1710.0000000        1904.4061279       -194.40612793    
 3105-61-55      1731.0000000        1906.0423584       -175.04235840    
 3105-66-18      1767.0000000        1925.0404053       -158.04040527    
 3142-12-1       1778.0000000        1853.0664062       -75.066406250    
 3142-16-342     1744.0000000        1856.6423340       -112.64233398    
 3142-56-24      1707.0000000        1906.4261475       -199.42614746    
 3142-61-55      1726.0000000        1908.1689453       -182.16894531    
 3142-66-19      1759.0000000        1925.8709717       -166.87097168    
 3138-21-346     1718.0000000        1859.7547607       -141.75476074    
 3138-56-24      1708.0000000        1906.6381836       -198.63818359    
 3138-61-55      1727.0000000        1908.3811035       -181.38110352    
 3138-66-19      1760.0000000        1926.1707764       -166.17077637    
 3119-48-337     1687.0000000        1897.4356689       -210.43566895    
 3119-56-23      1712.0000000        1907.2775879       -195.27758789    
 3119-61-60      1732.0000000        1908.9498291       -176.94982910    
 3119-66-18      1768.0000000        1927.9074707       -159.90747070    
 3130-2-305      1828.0000000        1852.5037842       -24.503784180    
 3108-8-32       1790.0000000        1860.3151855       -70.315185547    
 3104-56-26      1723.0000000        1925.7851562       -202.78515625    
 3104-61-55      1744.0000000        1927.9713135       -183.97131348    
 3104-66-19      1777.0000000        1951.3979492       -174.39794922    
 3102-56-26      1724.0000000        1927.2888184       -203.28881836    
 3102-61-55      1744.0000000        1929.5336914       -185.53369141    
 3102-66-19      1776.0000000        1953.0975342       -177.09753418    
 3140-48-300     1690.0000000        1911.6887207       -221.68872070    
 3141-48-300     1693.0000000        1911.6887207       -218.68872070    
 3061-66-19      1799.0000000        1995.3226318       -196.32263184    
 3085-1-337      1814.0000000        1882.0740967       -68.074096680    
 3085-6-286      1805.0000000        1883.3627930       -78.362792969    
 3085-11-361     1794.0000000        1885.2979736       -91.297973633    
 3085-16-350     1764.0000000        1889.1424561       -125.14245605    
 3085-21-346     1739.0000000        1891.8435059       -152.84350586    
 3064-56-25      1746.0000000        1962.0316162       -216.03161621    
 3083-56-23      1725.0000000        1930.8032227       -205.80322266    
 3083-61-55      1747.0000000        1933.4693604       -186.46936035    
 3083-66-18      1785.0000000        1959.1466064       -174.14660645    
 3084-10-60      1787.0000000        1860.8520508       -73.852050781    
 3084-48-341     1690.0000000        1908.1743164       -218.17431641    
 3084-56-23      1716.0000000        1917.8706055       -201.87060547    
 3084-61-55      1737.0000000        1920.2851562       -183.28515625    
 3084-66-18      1775.0000000        1944.6859131       -169.68591309    
 3081-48-341     1690.0000000        1905.9661865       -215.96618652    
 3081-56-23      1714.0000000        1915.6633301       -201.66333008    
 3081-61-55      1736.0000000        1918.0061035       -182.00610352    
 3081-66-18      1774.0000000        1941.6726074       -167.67260742    
 3079-1-365      1791.0000000        1857.8181152       -66.818115234    
 3058-48-337     1697.0000000        1918.0212402       -221.02124023    
 3058-56-23      1722.0000000        1927.4561768       -205.45617676    
 3058-61-55      1745.0000000        1930.9520264       -185.95202637    
 3058-66-18      1782.0000000        1960.8100586       -178.81005859    
 3086-12-247     1778.0000000        1852.8197021       -74.819702148    
 3107-1-365      1784.0000000        1837.3099365       -53.309936523    
 3107-11-334     1774.0000000        1839.2580566       -65.258056641    
 3040-10-32      1777.0000000        1849.4217529       -72.421752930    
 3017-71-5       1785.0000000        1932.4003906       -147.40039062    
 3017-71-365     1787.0000000        1935.0654297       -148.06542969    
 3015-55-354     1715.0000000        1895.8266602       -180.82666016    
 3015-71-5       1790.0000000        1932.0993652       -142.09936523    
 3015-71-365     1792.0000000        1934.7746582       -142.77465820    
 3054-10-32      1780.0000000        1857.1705322       -77.170532227    
 3046-12-247     1759.0000000        1858.1636963       -99.163696289    
 3046-16-350     1748.0000000        1863.6927490       -115.69274902    
 3046-21-343     1714.0000000        1865.1663818       -151.16638184    
 3046-32-8       1684.0000000        1875.3518066       -191.35180664    
 3046-36-87      1671.0000000        1884.2215576       -213.22155762    
 3036-11-18      1788.0000000        1859.7355957       -71.735595703    
 3036-16-350     1755.0000000        1865.5148926       -110.51489258    
 3036-21-335     1722.0000000        1866.8350830       -144.83508301    
 3030-12-247     1770.0000000        1872.5109863       -102.51098633    
 3030-16-350     1757.0000000        1877.7680664       -120.76806641    
 3030-21-346     1725.0000000        1879.3950195       -154.39501953    
 3038-1-337      1816.0000000        1886.0687256       -70.068725586    
 3038-6-286      1808.0000000        1887.8656006       -79.865600586    
 3038-11-338     1796.0000000        1889.4703369       -93.470336914    
 3038-16-350     1765.0000000        1893.8179932       -128.81799316    
 3038-21-312     1732.0000000        1896.3365479       -164.33654785    
 3038-42-349     1678.0000000        1930.8692627       -252.86926270    
 3035-48-337     1709.0000000        1938.5195312       -229.51953125    
 3035-56-23      1737.0000000        1946.8685303       -209.86853027    
 3035-60-319     1755.0000000        1949.5382080       -194.53820801    
 3035-66-18      1790.0000000        1980.0792236       -190.07922363    
 3035-71-11      1802.0000000        2003.5111084       -201.51110840    
 3035-71-365     1804.0000000        2005.0729980       -201.07299805    
 3007-12-76      1799.0000000        1892.9055176       -93.905517578    
 3007-48-337     1714.0000000        1945.1654053       -231.16540527    
 3007-56-23      1743.0000000        1953.4689941       -210.46899414    
 3007-61-55      1764.0000000        1952.0047607       -188.00476074    
 3007-66-18      1797.0000000        1979.5377197       -182.53771973    
 3032-10-32      1837.0000000        1904.3258057       -67.325805664    
 3032-48-337     1721.0000000        1956.0451660       -235.04516602    
 3032-56-23      1749.0000000        1963.8050537       -214.80505371    
 3032-61-55      1769.0000000        1966.3986816       -197.39868164    
 3032-66-27      1792.0000000        1993.9984131       -201.99841309    
 3006-56-23      1745.0000000        1964.5111084       -219.51110840    
 3006-61-55      1767.0000000        1968.6171875       -201.61718750    
 3006-66-18      1801.0000000        2002.5643311       -201.56433105    
 3005-10-60      1836.0000000        1913.1787109       -77.178710938    
 3005-48-337     1770.0000000        1966.6235352       -196.62353516    
 3005-56-23      1795.0000000        1974.0208740       -179.02087402    
 3005-61-55      1805.0000000        1976.8552246       -171.85522461    
 3005-66-18      1812.0000000        2006.2523193       -194.25231934    
 3002-56-23      1794.0000000        1982.3316650       -188.33166504    
 3002-61-55      1805.0000000        1984.3496094       -179.34960938    
 3002-66-19      1810.0000000        2010.8435059       -200.84350586    
 3182-48-337     1674.0000000        1859.9410400       -185.94104004    
 3182-56-19      1692.0000000        1869.6921387       -177.69213867    
 3182-61-60      1708.0000000        1871.0029297       -163.00292969    
 3182-66-27      1739.0000000        1881.5656738       -142.56567383    
 3155-8-1        1775.0000000        1833.5838623       -58.583862305    
 3155-48-337     1676.0000000        1872.9033203       -196.90332031    
 3155-56-19      1717.0000000        1882.7968750       -165.79687500    
 3155-66-24      1748.0000000        1896.8785400       -148.87854004    
 2695-43-60      1677.0000000        1877.2139893       -200.21398926    
 2695-55-354     1712.0000000        1895.6079102       -183.60791016    
 2695-61-7       1726.0000000        1897.1918945       -171.19189453    
 2695-65-361     1770.0000000        1911.2531738       -141.25317383    
 2695-71-5       1782.0000000        1931.8459473       -149.84594727    
 2695-71-365     1784.0000000        1934.5100098       -150.51000977    
 3037-48-364     1774.0000000        1987.9758301       -213.97583008    
 3009-56-25      1908.0000000        2032.8403320       -124.84033203    
 3009-61-55      1906.0000000        2032.5474854       -126.54748535    
 3001-56-25      1910.0000000        2035.7633057       -125.76330566    
 3001-61-55      1908.0000000        2035.4012451       -127.40124512    
 3004-17-1       2018.0000000        2105.4492188       -87.449218750    
 3004-22-1       2015.0000000        2107.4526367       -92.452636719    
 3004-27-32      2001.0000000        2111.5085449       -110.50854492    
 3004-37-36      2005.0000000        2126.3935547       -121.39355469    
 3004-66-24      2001.0000000        2141.6579590       -140.65795898    
 3004-71-57      1994.0000000        2149.3645020       -155.36450195    
 3010-48-334     2113.0000000        2214.3654785       -101.36547852    
 3010-56-27      2109.0000000        2215.5012207       -106.50122070    
 3039-42-364     2228.0000000        2337.8886719       -109.88867188    
 3039-48-335     2245.0000000        2342.1098633       -97.109863281    
 3039-56-25      2227.0000000        2346.8732910       -119.87329102    
 3019-31-297     2244.0000000        2286.9785156       -42.978515625    
 2997-36-32      2229.0000000        2300.6911621       -71.691162109    
 2997-43-41      2230.0000000        2305.2402344       -75.240234375    
 2997-48-334     2229.0000000        2310.5866699       -81.586669922    
 3012-31-339     2316.0000000        2326.9611816       -10.961181641    
 3016-8-222      2284.0000000        2351.1884766       -67.188476562    
 3016-11-53      2300.0000000        2350.9860840       -50.986083984    
 3014-42-365     2297.0000000        2366.1784668       -69.178466797    
 3014-48-334     2299.0000000        2372.0136719       -73.013671875    
 3014-56-24      2299.0000000        2375.1855469       -76.185546875    
 3014-61-59      2298.0000000        2376.6083984       -78.608398438    
 3014-66-25      2291.0000000        2378.0454102       -87.045410156    
 3014-71-54      2278.0000000        2380.3564453       -102.35644531    
 3013-43-6       2316.0000000        2382.4636230       -66.463623047    
 3013-48-335     2319.0000000        2388.5488281       -69.548828125    
 3013-56-26      2319.0000000        2391.4384766       -72.438476562    
 3013-66-28      2310.0000000        2394.6101074       -84.610107422    
 3041-66-33      2468.0000000        2549.1743164       -81.174316406    
 3041-71-61      2459.0000000        2550.6391602       -91.639160156    
 3055-11-56      2467.0000000        2510.6081543       -43.608154297    
 3055-43-6       2457.0000000        2532.9060059       -75.906005859    
 3055-48-335     2469.0000000        2540.7617188       -71.761718750    
 3055-56-19      2469.0000000        2541.7690430       -72.769042969    
 3251-48-334     3019.0000000        2971.6372070        47.362792969    
 3246-56-26      2986.0000000        2969.2148438        16.785156250    
 3248-16-116     2955.0000000        2922.3864746        32.613525391    
 3248-21-116     2975.0000000        2944.0249023        30.975097656    
 3248-26-125     2959.0000000        2963.9616699       -4.9616699219    
 3248-31-111     2961.0000000        2965.8420410       -4.8420410156    
 3248-37-36      2957.0000000        2951.5974121        5.4025878906    
 3248-43-81      2972.0000000        2969.9216309        2.0783691406    
 3248-48-334     2988.0000000        2971.4289551        16.571044922    
 3248-56-26      2987.0000000        2969.7075195        17.292480469    
 3248-71-61      2965.0000000        2972.9421387       -7.9421386719    
 3242-56-26      2985.0000000        2958.4421387        26.557861328    
 3241-61-61      2998.0000000        2958.9606934        39.039306641    
 3241-66-18      2981.0000000        2977.6733398        3.3266601562    
 3241-71-61      3005.0000000        2971.0979004        33.902099609    
 3235-71-64      3012.0000000        2958.0786133        53.921386719    
 3221-66-33      2925.0000000        2914.6477051        10.352294922    
 3262-42-335     2939.0000000        2904.8618164        34.138183594    
 3262-49-8       2944.0000000        2913.3310547        30.668945312    
 3262-55-342     2943.0000000        2915.3071289        27.692871094    
 3262-61-35      2939.0000000        2915.7714844        23.228515625    
 3262-66-33      2931.0000000        2918.9956055        12.004394531    
 3262-71-323     2925.0000000        2922.2053223        2.7946777344    
 3256-27-125     2931.0000000        2885.2307129        45.769287109    
 3256-37-36      2916.0000000        2890.7524414        25.247558594    
 3256-48-356     2938.0000000        2902.4370117        35.562988281    
 3256-55-342     2934.0000000        2904.9001465        29.099853516    
 3256-66-33      2926.0000000        2909.1472168        16.852783203    
 3256-71-323     2917.0000000        2910.3190918        6.6809082031    
 3252-43-81      2932.0000000        2894.5458984        37.454101562    
 3252-48-336     2934.0000000        2896.8308105        37.169189453    
 3252-56-27      2930.0000000        2900.4135742        29.586425781    
 3252-60-323     2929.0000000        2897.7778320        31.222167969    
 3252-65-299     2923.0000000        2905.0842285        17.915771484    
 3252-71-365     2915.0000000        2904.7980957        10.201904297    
 3253-55-342     2930.0000000        2906.5458984        23.454101562    
 3253-60-335     2927.0000000        2905.1010742        21.898925781    
 3253-66-34      2925.0000000        2910.8686523        14.131347656    
 3253-71-323     2917.0000000        2912.4157715        4.5842285156    
 3263-16-299     2905.0000000        2846.3273926        58.672607422    
 3263-26-127     2904.0000000        2862.8908691        41.109130859    
 3263-43-60      2902.0000000        2876.5764160        25.423583984    
 3263-48-356     2911.0000000        2882.5703125        28.429687500    
 3263-56-24      2900.0000000        2884.4291992        15.570800781    
 3263-66-33      2901.0000000        2888.4711914        12.528808594    
 3263-71-365     2895.0000000        2889.9487305        5.0512695312    
 3224-56-27      2930.0000000        2899.0454102        30.954589844    
 3209-33-314     2882.0000000        2865.1806641        16.819335938    
 3210-43-81      2884.0000000        2867.4174805        16.582519531    
 3210-48-336     2887.0000000        2874.0073242        12.992675781    
 3210-56-26      2894.0000000        2875.0502930        18.949707031    
 3195-33-32      2815.0000000        2846.3688965       -31.368896484    
 3180-34-152     2820.0000000        2843.8811035       -23.881103516    
 3184-66-28      2857.0000000        2861.2436523       -4.2436523438    
 3184-71-62      2852.0000000        2863.3808594       -11.380859375    
 3186-66-28      2856.0000000        2861.8610840       -5.8610839844    
 3186-71-60      2852.0000000        2864.0463867       -12.046386719    
 3183-66-31      2872.0000000        2871.0639648       0.93603515625    
 3207-43-7       2948.0000000        2922.9946289        25.005371094    
 3207-48-334     2964.0000000        2922.0251465        41.974853516    
 3207-56-26      2976.0000000        2921.5871582        54.412841797    
 3190-43-7       2890.0000000        2862.5021973        27.497802734    
 3190-48-336     2901.0000000        2872.2619629        28.738037109    
 3190-56-25      2904.0000000        2870.6770020        33.322998047    
 3194-71-62      2908.0000000        2903.9111328        4.0888671875    
 3192-66-34      2931.0000000        2907.1970215        23.802978516    
 3192-71-60      2929.0000000        2902.2160645        26.783935547    
 3187-43-7       2909.0000000        2887.2294922        21.770507812    
 3187-48-334     2917.0000000        2884.2492676        32.750732422    
 3203-71-62      2945.0000000        2922.5690918        22.430908203    
 3165-71-62      2841.0000000        2859.4130859       -18.413085938    
 3148-43-7       2842.0000000        2823.7341309        18.265869141    
 3157-71-62      2841.0000000        2849.9150391       -8.9150390625    
 3152-71-62      2846.0000000        2843.0905762        2.9094238281    
 3169-43-8       2834.0000000        2833.2238770       0.77612304688    
 3169-48-336     2821.0000000        2839.2687988       -18.268798828    
 3169-66-34      2822.0000000        2844.5805664       -22.580566406    
 3169-71-61      2805.0000000        2842.2595215       -37.259521484    
 3168-43-7       2830.0000000        2830.5405273      -0.54052734375    
 3168-56-26      2830.0000000        2836.9367676       -6.9367675781    
 3168-66-34      2829.0000000        2841.3051758       -12.305175781    
 3156-27-289     2792.0000000        2805.4279785       -13.427978516    
 3144-43-7       2755.0000000        2800.3125000       -45.312500000    
 3144-56-25      2765.0000000        2806.9919434       -41.991943359    
 3144-66-34      2744.0000000        2811.6650391       -67.665039062    
 3144-71-60      2734.0000000        2812.1420898       -78.142089844    
 3110-43-5       2722.0000000        2765.6791992       -43.679199219    
 3110-48-335     2730.0000000        2769.1911621       -39.191162109    
 3136-43-7       2851.0000000        2832.1567383        18.843261719    
 3136-48-334     2861.0000000        2832.5388184        28.461181641    
 3136-56-26      2868.0000000        2833.6074219        34.392578125    
 3136-66-35      2846.0000000        2838.8774414        7.1225585938    
 3136-71-61      2827.0000000        2836.7583008       -9.7583007812    
 3093-5-82       2709.0000000        2714.5368652       -5.5368652344    
 3093-6-97       2709.0000000        2714.2392578       -5.2392578125    
 3093-16-133     2692.0000000        2717.0668945       -25.066894531    
 3093-26-124     2688.0000000        2742.7485352       -54.748535156    
 3093-37-37      2684.0000000        2740.5161133       -56.516113281    
 3093-43-7       2727.0000000        2754.6970215       -27.697021484    
 3094-48-337     2811.0000000        2793.6105957        17.389404297    
 3094-66-33      2785.0000000        2798.1423340       -13.142333984    
 3094-71-61      2774.0000000        2800.3288574       -26.328857422    
 3057-48-337     2564.0000000        2601.9370117       -37.937011719    
 3057-56-25      2558.0000000        2603.5236816       -45.523681641    
 3011-48-337     2533.0000000        2544.1533203       -11.153320312    
 3011-66-33      2460.0000000        2550.5002441       -90.500244141    
 3011-71-61      2447.0000000        2551.3852539       -104.38525391    
 3026-48-337     2520.0000000        2580.7016602       -60.701660156    
 3026-56-25      2554.0000000        2582.2556152       -28.255615234    
 2999-16-361     2530.0000000        2547.5363770       -17.536376953    
 2999-22-31      2533.0000000        2558.4760742       -25.476074219    
 2999-27-11      2522.0000000        2570.0942383       -48.094238281    
 2999-31-351     2526.0000000        2573.2324219       -47.232421875    
 2999-37-343     2520.0000000        2570.1193848       -50.119384766    
 2999-56-25      2568.0000000        2587.0070801       -19.007080078    
 2999-66-33      2500.0000000        2592.1765137       -92.176513672    
 2999-71-61      2475.0000000        2591.9570312       -116.95703125    
 2994-43-5       2561.0000000        2589.5927734       -28.592773438    
 2994-56-25      2576.0000000        2594.7946777       -18.794677734    
 3029-48-336     2649.0000000        2662.5979004       -13.597900391    
 3029-56-26      2651.0000000        2664.1450195       -13.145019531    
 3029-66-33      2616.0000000        2669.1149902       -53.114990234    
 3008-48-336     2686.0000000        2691.8564453       -5.8564453125    
 3008-56-26      2693.0000000        2691.2497559        1.7502441406    
 2963-1-107      1799.0000000        1835.4067383       -36.406738281    
 2948-17-4       1766.0000000        1839.1781006       -73.178100586    
 2982-48-348     1665.0000000        1865.5090332       -200.50903320    
 2982-55-354     1675.0000000        1871.8645020       -196.86450195    
 2982-61-7       1679.0000000        1874.5440674       -195.54406738    
 2982-66-55      1695.0000000        1880.4373779       -185.43737793    
 2982-71-355     1716.0000000        1899.4304199       -183.43041992    
 2968-71-365     1752.0000000        1903.7845459       -151.78454590    
 2951-42-351     1676.0000000        1857.3204346       -181.32043457    
 2951-48-348     1682.0000000        1870.6356201       -188.63562012    
 2951-55-354     1690.0000000        1876.2469482       -186.24694824    
 2951-61-5       1696.0000000        1878.8325195       -182.83251953    
 2951-66-20      1714.0000000        1884.3063965       -170.30639648    
 2951-71-355     1736.0000000        1903.7960205       -167.79602051    
 2950-12-335     1795.0000000        1832.2425537       -37.242553711    
 2950-55-354     1695.0000000        1876.8421631       -181.84216309    
 2945-1-107      1802.0000000        1830.0844727       -28.084472656    
 2945-7-3        1799.0000000        1830.1666260       -31.166625977    
 2945-10-320     1798.0000000        1830.8576660       -32.857666016    
 2902-42-351     1680.0000000        1866.2573242       -186.25732422    
 2902-48-348     1690.0000000        1880.5924072       -190.59240723    
 2902-55-354     1697.0000000        1884.8089600       -187.80895996    
 2902-61-5       1703.0000000        1887.6441650       -184.64416504    
 2902-66-20      1715.0000000        1892.5402832       -177.54028320    
 2902-71-355     1732.0000000        1912.3774414       -180.37744141    
 2906-12-332     1816.0000000        1838.2232666       -22.223266602    
 2906-17-4       1787.0000000        1839.7111816       -52.711181641    
 2906-22-34      1763.0000000        1841.0783691       -78.078369141    
 2906-32-85      1709.0000000        1850.4683838       -141.46838379    
 2906-37-33      1693.0000000        1857.1943359       -164.19433594    
 2906-48-365     1698.0000000        1881.1844482       -183.18444824    
 2906-55-354     1704.0000000        1886.0446777       -182.04467773    
 2906-61-5       1712.0000000        1888.9992676       -176.99926758    
 2906-66-20      1724.0000000        1894.0130615       -170.01306152    
 2906-71-365     1744.0000000        1914.1756592       -170.17565918    
 2922-16-313     1748.0000000        1843.8277588       -95.827758789    
 2922-22-34      1736.0000000        1845.7805176       -109.78051758    
 2922-27-13      1727.0000000        1850.7733154       -123.77331543    
 2559-17-6       1766.0000000        1847.6982422       -81.698242188    
 2559-42-351     1729.0000000        1877.5450439       -148.54504395    
 2559-48-348     1727.0000000        1889.6866455       -162.68664551    
 2559-56-3       1747.0000000        1896.4749756       -149.47497559    
 2559-66-20      1779.0000000        1908.5563965       -129.55639648    
 2559-71-365     1791.0000000        1930.9012451       -139.90124512    
 2920-1-109      1851.0000000        1832.8172607        18.182739258    
 2901-42-351     1703.0000000        1882.8284912       -179.82849121    
 2901-55-355     1725.0000000        1901.6489258       -176.64892578    
 2901-61-5       1741.0000000        1904.8765869       -163.87658691    
 2901-66-20      1777.0000000        1913.5290527       -136.52905273    
 2901-71-365     1790.0000000        1936.3211670       -146.32116699    
 2905-17-6       1766.0000000        1851.0399170       -85.039916992    
 2905-22-34      1752.0000000        1852.9172363       -100.91723633    
 2905-42-351     1705.0000000        1882.8876953       -177.88769531    
 2905-71-50      1791.0000000        1932.9964600       -141.99645996    
 2905-71-365     1792.0000000        1936.4628906       -144.46289062    
 2907-42-351     1686.0000000        1878.8360596       -192.83605957    
 2907-48-348     1710.0000000        1890.8830566       -180.88305664    
 2907-55-355     1725.0000000        1897.8568115       -172.85681152    
 2907-61-5       1744.0000000        1900.9245605       -156.92456055    
 2907-66-20      1779.0000000        1909.6965332       -130.69653320    
 2907-71-365     1793.0000000        1936.0891113       -143.08911133    
 2900-17-6       1758.0000000        1853.6873779       -95.687377930    
 2900-56-20      1729.0000000        1905.5993652       -176.59936523    
 2900-66-26      1782.0000000        1918.8964844       -136.89648438    
 2874-3-290      1828.0000000        1844.5642090       -16.564208984    
 2838-3-1        1817.0000000        1846.4975586       -29.497558594    
 2809-16-354     1803.0000000        1844.7966309       -41.796630859    
 2788-1-105      1834.0000000        1845.3975830       -11.397583008    
 2788-7-3        1834.0000000        1845.3270264       -11.327026367    
 2788-11-311     1833.0000000        1845.7866211       -12.786621094    
 2780-12-173     1827.0000000        1846.3787842       -19.378784180    
 2780-16-354     1802.0000000        1847.0496826       -45.049682617    
 2780-37-33      1689.0000000        1866.2303467       -177.23034668    
 2779-16-354     1809.0000000        1848.1954346       -39.195434570    
 2779-22-34      1782.0000000        1849.8195801       -67.819580078    
 2777-16-354     1824.0000000        1854.9851074       -30.985107422    
 2787-16-335     1815.0000000        1855.0131836       -40.013183594    
 2787-22-34      1802.0000000        1856.3881836       -54.388183594    
 2787-34-351     1762.0000000        1873.5093994       -111.50939941    
 2787-56-25      1747.0000000        1906.8154297       -159.81542969    
 2787-61-52      1751.0000000        1911.1116943       -160.11169434    
 2787-66-25      1760.0000000        1914.4655762       -154.46557617    
 2783-17-6       1822.0000000        1857.0963135       -35.096313477    
 2783-56-25      1749.0000000        1909.5666504       -160.56665039    
 2783-66-20      1780.0000000        1918.3135986       -138.31359863    
 2783-71-365     1781.0000000        1940.9569092       -159.95690918    
 2790-66-20      1764.0000000        1917.1994629       -153.19946289    
 2790-71-365     1774.0000000        1940.7463379       -166.74633789    
 2745-16-354     1825.0000000        1856.3067627       -31.306762695    
 2745-66-20      1767.0000000        1915.8397217       -148.83972168    
 2745-71-365     1771.0000000        1938.1263428       -167.12634277    
 2775-1-86       1838.0000000        1851.3143311       -13.314331055    
 2775-7-68       1836.0000000        1851.4028320       -15.402832031    
 2731-48-348     1740.0000000        1899.7918701       -159.79187012    
 2731-55-354     1732.0000000        1907.4752197       -175.47521973    
 2731-61-5       1751.0000000        1912.6660156       -161.66601562    
 2731-66-20      1763.0000000        1915.8367920       -152.83679199    
 2731-71-365     1772.0000000        1938.5065918       -166.50659180    
 2771-22-21      1796.0000000        1850.7716064       -54.771606445    
 2718-17-6       1829.0000000        1853.5504150       -24.550415039    
 2718-27-13      1784.0000000        1858.8298340       -74.829833984    
 2769-56-26      1705.0000000        1894.0521240       -189.05212402    
 2769-61-55      1708.0000000        1897.3321533       -189.33215332    
 2769-66-26      1715.0000000        1900.8547363       -185.85473633    
 2758-7-344      1835.0000000        1845.6983643       -10.698364258    
 2675-48-348     1693.0000000        1895.2374268       -202.23742676    
 2675-61-4       1704.0000000        1904.0955811       -200.09558105    
 2675-66-20      1711.0000000        1907.3562012       -196.35620117    
 2675-71-365     1726.0000000        1926.1656494       -200.16564941    
 2637-42-351     1723.0000000        1885.1827393       -162.18273926    
 2637-48-349     1721.0000000        1897.7574463       -176.75744629    
 2637-55-355     1721.0000000        1903.9467773       -182.94677734    
 2637-61-4       1722.0000000        1907.0328369       -185.03283691    
 2637-66-51      1728.0000000        1910.3623047       -182.36230469    
 2637-71-365     1741.0000000        1929.8251953       -188.82519531    
 2641-16-355     1822.0000000        1853.9598389       -31.959838867    
 2641-56-25      1716.0000000        1905.1608887       -189.16088867    
 2641-61-53      1720.0000000        1908.3763428       -188.37634277    
 2641-66-26      1717.0000000        1911.8278809       -194.82788086    
 2640-42-351     1705.0000000        1886.3710938       -181.37109375    
 2640-48-348     1712.0000000        1898.9114990       -186.91149902    
 2640-55-355     1717.0000000        1905.3352051       -188.33520508    
 2640-61-4       1721.0000000        1908.7221680       -187.72216797    
 2640-66-20      1732.0000000        1912.2730713       -180.27307129    
 2640-71-4       1743.0000000        1928.8907471       -185.89074707    
 2640-71-365     1745.0000000        1934.6811523       -189.68115234    
 2636-42-351     1705.0000000        1886.3153076       -181.31530762    
 2636-48-348     1710.0000000        1898.8577881       -188.85778809    
 2636-55-355     1704.0000000        1905.3023682       -201.30236816    
 2636-61-4       1718.0000000        1908.7125244       -190.71252441    
 2636-66-20      1727.0000000        1912.2860107       -185.28601074    
 2636-71-5       1738.0000000        1928.9958496       -190.99584961    
 2636-71-365     1741.0000000        1934.7725830       -193.77258301    
 2639-12-178     1856.0000000        1854.2766113        1.7233886719    
 2639-16-354     1839.0000000        1854.8513184       -15.851318359    
 2639-42-351     1715.0000000        1887.2293701       -172.22937012    
 2639-48-348     1725.0000000        1899.7460938       -174.74609375    
 2639-71-50      1753.0000000        1931.0899658       -178.08996582    
 2639-71-365     1754.0000000        1936.2944336       -182.29443359    
 2654-56-25      1734.0000000        1905.8320312       -171.83203125    
 2654-61-52      1736.0000000        1909.6379395       -173.63793945    
 2978-1-364      1871.0000000        1933.2947998       -62.294799805    
 2978-4-93       1868.0000000        1933.7619629       -65.761962891    
 2964-48-300     1788.0000000        2004.3300781       -216.33007812    
 2964-55-321     1815.0000000        2009.8107910       -194.81079102    
 2964-60-313     1823.0000000        2010.0805664       -187.08056641    
 2964-65-364     1827.0000000        2029.9809570       -202.98095703    
 2964-71-349     1835.0000000        2052.5380859       -217.53808594    
 2965-71-350     1956.0000000        2054.9399414       -98.939941406    
 2985-17-5       1729.0000000        1874.2927246       -145.29272461    
 2985-56-24      1725.0000000        1926.9285889       -201.92858887    
 2985-61-56      1753.0000000        1931.4128418       -178.41284180    
 2985-66-18      1803.0000000        1962.7777100       -159.77770996    
 2913-56-23      1741.0000000        1911.6878662       -170.68786621    
 2921-1-86       1806.0000000        1857.2012939       -51.201293945    
 2921-7-3        1801.0000000        1858.0205078       -57.020507812    
 2921-10-320     1794.0000000        1859.0678711       -65.067871094    
 2921-12-361     1787.0000000        1859.7397461       -72.739746094    
 2938-56-26      1732.0000000        1938.8522949       -206.85229492    
 2938-61-59      1755.0000000        1942.6700439       -187.67004395    
 2938-66-20      1805.0000000        1972.2193604       -167.21936035    
 2935-22-34      1724.0000000        1877.3646240       -153.36462402    
 2935-27-20      1702.0000000        1883.2277832       -181.22778320    
 2935-56-24      1723.0000000        1930.8414307       -207.84143066    
 2935-61-56      1746.0000000        1934.2171631       -188.21716309    
 2935-66-19      1797.0000000        1960.1259766       -163.12597656    
 2943-48-275     1710.0000000        1946.9246826       -236.92468262    
 2944-48-275     1707.0000000        1949.8012695       -242.80126953    
 2936-56-24      1826.0000000        2007.9414062       -181.94140625    
 2936-61-55      1834.0000000        2008.9847412       -174.98474121    
 2937-17-5       1815.0000000        1936.2098389       -121.20983887    
 2937-22-34      1798.0000000        1936.4654541       -138.46545410    
 2937-32-85      1767.0000000        1951.6334229       -184.63342285    
 2937-42-349     1749.0000000        1974.3831787       -225.38317871    
 2937-48-341     1779.0000000        1983.8393555       -204.83935547    
 2937-56-24      1805.0000000        1990.0718994       -185.07189941    
 2937-65-302     1818.0000000        2013.6226807       -195.62268066    
 2915-12-6       1856.0000000        1948.5445557       -92.544555664    
 2915-17-5       1829.0000000        1955.7476807       -126.74768066    
 2915-56-24      1818.0000000        2007.7692871       -189.76928711    
 2915-61-56      1828.0000000        2008.7832031       -180.78320312    
 2915-66-19      1834.0000000        2027.8524170       -193.85241699    
 2863-48-275     1773.0000000        1946.5020752       -173.50207520    
 2864-48-275     1775.0000000        1947.1602783       -172.16027832    
 2885-17-5       1811.0000000        1892.2121582       -81.212158203    
 2885-56-24      1794.0000000        1949.1257324       -155.12573242    
 2885-61-56      1810.0000000        1951.5986328       -141.59863281    
 2867-17-6       1763.0000000        1878.0814209       -115.08142090    
 2867-21-335     1730.0000000        1879.9494629       -149.94946289    
 2867-56-24      1732.0000000        1934.3120117       -202.31201172    
 2867-61-56      1751.0000000        1936.9294434       -185.92944336    
 2867-66-19      1792.0000000        1956.8806152       -164.88061523    
 2887-56-24      1732.0000000        1921.5853271       -189.58532715    
 2887-66-19      1779.0000000        1940.3063965       -161.30639648    
 2886-17-6       1759.0000000        1868.9671631       -109.96716309    
 2886-56-24      1727.0000000        1924.4028320       -197.40283203    
 2886-61-56      1748.0000000        1927.0749512       -179.07495117    
 2886-66-27      1789.0000000        1944.6219482       -155.62194824    
 2850-1-86       1825.0000000        1858.2244873       -33.224487305    
 2850-7-4        1820.0000000        1858.5571289       -38.557128906    
 2850-12-361     1812.0000000        1861.6665039       -49.666503906    
 2837-12-284     1798.0000000        1865.5848389       -67.584838867    
 2837-16-354     1759.0000000        1867.6605225       -108.66052246    
 2837-22-34      1730.0000000        1869.7823486       -139.78234863    
 2837-32-85      1685.0000000        1884.9146729       -199.91467285    
 2837-37-34      1676.0000000        1893.4100342       -217.41003418    
 2837-42-349     1690.0000000        1904.1599121       -214.15991211    
 2837-48-341     1709.0000000        1915.2221680       -206.22216797    
 2837-56-24      1730.0000000        1923.0061035       -193.00610352    
 2837-60-319     1750.0000000        1925.5534668       -175.55346680    
 2837-65-298     1789.0000000        1939.3254395       -150.32543945    
 2837-71-11      1802.0000000        1961.1527100       -159.15270996    
 2837-71-365     1807.0000000        1964.5870361       -157.58703613    
 2818-17-6       1760.0000000        1866.2100830       -106.21008301    
 2818-56-24      1738.0000000        1921.1463623       -183.14636230    
 2818-61-52      1757.0000000        1924.0727539       -167.07275391    
 2818-66-25      1793.0000000        1936.1108398       -143.11083984    
 2800-48-348     1708.0000000        1912.1363525       -204.13635254    
 2800-55-355     1729.0000000        1919.6475830       -190.64758301    
 2800-61-7       1747.0000000        1922.9503174       -175.95031738    
 2800-65-341     1780.0000000        1932.9998779       -152.99987793    
 2800-71-50      1796.0000000        1953.7469482       -157.74694824    
 2800-71-365     1797.0000000        1957.2357178       -160.23571777    
 2786-56-24      1730.0000000        1919.2241211       -189.22412109    
 2786-61-52      1745.0000000        1922.5155029       -177.51550293    
 2786-66-25      1781.0000000        1932.5399170       -151.53991699    
 2770-1-86       1835.0000000        1861.4445801       -26.444580078    
 2770-7-4        1831.0000000        1861.6430664       -30.643066406    
 2770-12-361     1826.0000000        1863.2646484       -37.264648438    
 2744-56-24      1736.0000000        1916.6159668       -180.61596680    
 2740-56-24      1735.0000000        1916.8820801       -181.88208008    
 2741-17-6       1783.0000000        1863.0391846       -80.039184570    
 2694-1-86       1871.0000000        1861.3272705        9.6727294922    
 2694-5-67       1870.0000000        1861.3266602        8.6733398438    
 2643-2-60       1888.0000000        1865.1856689        22.814331055    
 2643-6-284      1886.0000000        1865.1962891        20.803710938    
 2643-11-275     1876.0000000        1865.3800049        10.619995117    
 2933-56-23      1728.0000000        1910.1597900       -182.15979004    
 2851-16-354     1770.0000000        1860.1527100       -90.152709961    
 2851-65-341     1790.0000000        1926.5202637       -136.52026367    
 2851-71-50      1799.0000000        1947.2102051       -148.21020508    
 2851-71-365     1799.0000000        1950.6945801       -151.69458008    
 2854-65-341     1784.0000000        1929.2781982       -145.27819824    
 2854-71-50      1797.0000000        1950.2110596       -153.21105957    
 2854-71-365     1798.0000000        1953.6175537       -155.61755371    
 2796-61-52      1752.0000000        1918.5972900       -166.59729004    
 2796-66-33      1772.0000000        1927.0001221       -155.00012207    
 2712-42-351     1745.0000000        1892.8745117       -147.87451172    
 2712-48-348     1750.0000000        1904.3876953       -154.38769531    
 2712-56-27      1756.0000000        1912.4608154       -156.46081543    
 2712-61-7       1758.0000000        1916.7303467       -158.73034668    
 2712-66-55      1770.0000000        1923.0318604       -153.03186035    
 2712-71-365     1778.0000000        1946.5772705       -168.57727051    
 2709-55-355     1767.0000000        1911.4106445       -144.41064453    
 2709-61-7       1781.0000000        1916.0019531       -135.00195312    
 2709-65-341     1781.0000000        1922.5859375       -141.58593750    
 2709-71-365     1785.0000000        1951.0916748       -166.09167480    
 2702-42-351     1782.0000000        1893.7509766       -111.75097656    
 2702-48-348     1773.0000000        1905.0694580       -132.06945801    
 2702-56-27      1770.0000000        1913.0844727       -143.08447266    
 2702-61-7       1770.0000000        1917.2501221       -147.25012207    
 2702-65-341     1777.0000000        1923.3918457       -146.39184570    
 2702-71-365     1790.0000000        1947.5113525       -157.51135254    
 2711-39-335     1752.0000000        1887.8890381       -135.88903809    
 2711-56-26      1755.0000000        1913.7314453       -158.73144531    
 2711-61-7       1757.0000000        1917.8493652       -160.84936523    
 2711-65-341     1768.0000000        1924.2819824       -156.28198242    
 2711-71-365     1779.0000000        1948.4350586       -169.43505859    
 2713-42-351     1746.0000000        1894.7894287       -148.78942871    
 2713-56-26      1755.0000000        1914.0617676       -159.06176758    
 2713-61-7       1756.0000000        1918.0933838       -162.09338379    
 2713-65-341     1770.0000000        1924.7255859       -154.72558594    
 2713-71-365     1780.0000000        1948.7805176       -168.78051758    
 2682-56-23      1758.0000000        1916.3110352       -158.31103516    
 2682-61-53      1756.0000000        1920.9483643       -164.94836426    
 2682-66-28      1763.0000000        1928.0415039       -165.04150391    
 2866-12-332     1810.0000000        1854.9157715       -44.915771484    
 2866-17-6       1764.0000000        1856.7418213       -92.741821289    
 2998-43-6       2076.0000000        2181.4504395       -105.45043945    
 3416-56-26      1932.0000000        2073.2148438       -141.21484375    
 3416-61-55      1926.0000000        2071.9863281       -145.98632812    
 3416-66-19      1911.0000000        2082.5336914       -171.53369141    
 2986-8-305      1907.0000000        1990.1234131       -83.123413086    
 2960-1-365      1941.0000000        2003.3959961       -62.395996094    
 2961-56-25      1958.0000000        2090.1621094       -132.16210938    
 2961-61-59      1947.0000000        2088.8911133       -141.89111328    
 2961-66-19      1917.0000000        2097.7558594       -180.75585938    
 2957-56-25      1965.0000000        2097.1936035       -132.19360352    
 2957-61-59      1978.0000000        2095.7231445       -117.72314453    
 2988-1-51       1886.0000000        1959.4074707       -73.407470703    
 2984-8-213      1873.0000000        1964.8221436       -91.822143555    
 2971-7-60       1916.0000000        1993.0041504       -77.004150391    
 2969-56-25      1917.0000000        2045.7307129       -128.73071289    
 2969-61-55      1914.0000000        2045.2977295       -131.29772949    
 2969-66-19      1855.0000000        2059.5156250       -204.51562500    
 2976-56-25      1862.0000000        2038.1137695       -176.11376953    
 2976-61-55      1862.0000000        2037.8759766       -175.87597656    
 2976-66-19      1846.0000000        2053.1171875       -207.11718750    
 2972-56-25      1858.0000000        2036.7878418       -178.78784180    
 2972-66-19      1844.0000000        2052.2126465       -208.21264648    
 2919-21-335     1807.0000000        1956.6414795       -149.64147949    
 2946-56-25      1956.0000000        2096.8769531       -140.87695312    
 2946-66-19      1917.0000000        2103.8154297       -186.81542969    
 2927-22-17      1953.0000000        2056.7509766       -103.75097656    
 2927-27-32      1950.0000000        2065.0310059       -115.03100586    
 2955-8-276      1884.0000000        2005.7958984       -121.79589844    
 2955-12-40      1882.0000000        2006.2954102       -124.29541016    
 2955-17-1       1870.0000000        2014.5432129       -144.54321289    
 2955-27-32      1849.0000000        2021.3066406       -172.30664062    
 2955-32-12      1857.0000000        2027.2967529       -170.29675293    
 2955-37-1       1849.0000000        2037.9041748       -188.90417480    
 2926-56-26      1971.0000000        2113.8454590       -142.84545898    
 2926-61-59      1956.0000000        2112.5046387       -156.50463867    
 2942-1-365      1980.0000000        2070.6062012       -90.606201172    
 2916-56-25      1981.0000000        2126.1416016       -145.14160156    
 2916-61-59      1963.0000000        2124.4177246       -161.41772461    
 2916-66-20      1933.0000000        2129.8852539       -196.88525391    
 2941-42-364     2010.0000000        2158.4746094       -148.47460938    
 2941-48-335     2013.0000000        2159.7121582       -146.71215820    
 2941-56-23      2015.0000000        2158.6896973       -143.68969727    
 2941-61-59      2009.0000000        2156.8479004       -147.84790039    
 2941-66-26      2003.0000000        2159.6909180       -156.69091797    
 2941-71-54      1985.0000000        2166.2634277       -181.26342773    
 3185-34-152     2050.0000000        2164.9499512       -114.94995117    
 2925-42-364     2042.0000000        2170.3996582       -128.39965820    
 2925-48-335     2045.0000000        2171.5434570       -126.54345703    
 2925-56-23      2044.0000000        2170.2363281       -126.23632812    
 2925-66-26      2024.0000000        2170.7163086       -146.71630859    
 2925-71-54      2018.0000000        2176.4174805       -158.41748047    
 2954-42-363     2095.0000000        2185.3127441       -90.312744141    
 2954-56-23      2088.0000000        2187.3916016       -99.391601562    
 2954-61-59      2078.0000000        2186.9365234       -108.93652344    
 2954-66-27      2077.0000000        2188.2043457       -111.20434570    
 2889-42-364     2041.0000000        2181.9250488       -140.92504883    
 2889-48-336     2056.0000000        2182.4528809       -126.45288086    
 2889-56-24      2053.0000000        2180.9018555       -127.90185547    
 2880-22-18      2092.0000000        2168.5915527       -76.591552734    
 2880-27-32      2088.0000000        2172.6289062       -84.628906250    
 2880-38-1       2076.0000000        2187.0400391       -111.04003906    
 2880-42-363     2076.0000000        2191.9238281       -115.92382812    
 2893-1-274      2091.0000000        2145.5358887       -54.535888672    
 2893-4-279      2087.0000000        2145.7983398       -58.798339844    
 2893-5-285      2084.0000000        2146.2062988       -62.206298828    
 2893-12-46      2075.0000000        2148.6794434       -73.679443359    
 2893-17-19      2069.0000000        2152.9057617       -83.905761719    
 2893-22-1       2063.0000000        2154.0480957       -91.048095703    
 2893-27-32      2062.0000000        2158.7360840       -96.736083984    
 2893-32-14      2062.0000000        2165.9477539       -103.94775391    
 2893-38-1       2055.0000000        2174.9091797       -119.90917969    
 2896-42-363     2024.0000000        2171.9753418       -147.97534180    
 2853-42-364     2049.0000000        2186.3129883       -137.31298828    
 2853-48-336     2053.0000000        2185.9321289       -132.93212891    
 2853-56-24      2052.0000000        2184.2421875       -132.24218750    
 2853-61-59      2043.0000000        2182.0256348       -139.02563477    
 2853-66-27      2025.0000000        2183.6611328       -158.66113281    
 2853-71-55      2016.0000000        2188.2416992       -172.24169922    
 2858-42-363     1992.0000000        2170.3454590       -178.34545898    
 2858-48-336     2008.0000000        2168.0354004       -160.03540039    
 2858-56-24      2017.0000000        2166.6767578       -149.67675781    
 2858-61-59      2004.0000000        2164.1901855       -160.19018555    
 2858-66-27      1969.0000000        2166.7053223       -197.70532227    
 2858-71-62      1974.0000000        2172.1999512       -198.19995117    
 2904-2-1        2009.0000000        2096.8374023       -87.837402344    
 2892-1-360      2007.0000000        2101.1462402       -94.146240234    
 2892-7-65       1995.0000000        2104.4765625       -109.47656250    
 2892-11-334     1988.0000000        2105.1040039       -117.10400391    
 2892-16-318     1984.0000000        2113.2709961       -129.27099609    
 2892-22-34      1982.0000000        2111.5366211       -129.53662109    
 2892-27-32      1986.0000000        2120.1394043       -134.13940430    
 2892-31-351     1982.0000000        2127.1669922       -145.16699219    
 2892-36-50      1996.0000000        2134.6618652       -138.66186523    
 2909-56-25      1986.0000000        2135.1979980       -149.19799805    
 2909-61-59      1960.0000000        2133.2648926       -173.26489258    
 2909-66-19      1938.0000000        2137.9934082       -199.99340820    
 2911-56-25      1984.0000000        2133.5654297       -149.56542969    
 2911-61-59      1964.0000000        2131.6857910       -167.68579102    
 2911-66-19      1937.0000000        2136.5397949       -199.53979492    
 2884-66-32      1943.0000000        2148.0559082       -205.05590820    
 2865-8-91       1980.0000000        2111.8400879       -131.84008789    
 2865-48-342     1982.0000000        2149.2829590       -167.28295898    
 2848-66-32      1961.0000000        2162.8454590       -201.84545898    
 2881-48-342     1981.0000000        2143.7802734       -162.78027344    
 2859-8-121      1997.0000000        2115.9331055       -118.93310547    
 2871-56-24      1811.0000000        1993.3167725       -182.31677246    
 2871-61-59      1816.0000000        1996.6953125       -180.69531250    
 2871-66-27      1823.0000000        2012.7965088       -189.79650879    
 2811-17-6       1836.0000000        1935.0499268       -99.049926758    
 2811-22-34      1823.0000000        1937.3928223       -114.39282227    
 2811-56-24      1832.0000000        1989.8936768       -157.89367676    
 2811-61-59      1835.0000000        1993.7874756       -158.78747559    
 2834-48-342     1994.0000000        2157.7861328       -163.78613281    
 2835-48-342     1994.0000000        2158.1154785       -164.11547852    
 2835-56-24      2006.0000000        2157.1113281       -151.11132812    
 2849-42-363     1982.0000000        2165.2077637       -183.20776367    
 2849-48-336     2003.0000000        2162.5461426       -159.54614258    
 2828-55-343     2013.0000000        2164.7722168       -151.77221680    
 2828-61-38      2000.0000000        2162.1040039       -162.10400391    
 2828-66-55      1961.0000000        2165.0327148       -204.03271484    
 2828-71-365     1963.0000000        2170.9445801       -207.94458008    
 2846-8-32       2008.0000000        2122.6318359       -114.63183594    
 2847-56-24      2005.0000000        2155.9504395       -150.95043945    
 2833-1-283      2018.0000000        2120.2678223       -102.26782227    
 2821-43-27      1983.0000000        2171.1464844       -188.14648438    
 2821-48-334     1999.0000000        2167.7800293       -168.78002930    
 2821-56-23      2011.0000000        2166.3874512       -155.38745117    
 2821-61-54      1994.0000000        2163.7165527       -169.71655273    
 2821-66-13      1953.0000000        2166.1799316       -213.17993164    
 2817-1-364      2034.0000000        2129.5905762       -95.590576172    
 2805-48-334     2001.0000000        2170.4284668       -169.42846680    
 2805-56-23      2012.0000000        2168.9426270       -156.94262695    
 2805-61-53      1994.0000000        2166.2006836       -172.20068359    
 2805-66-20      1954.0000000        2168.5390625       -214.53906250    
 2798-8-32       2025.0000000        2141.3061523       -116.30615234    
 2792-48-334     2008.0000000        2175.8515625       -167.85156250    
 2792-56-23      2019.0000000        2174.1967773       -155.19677734    
 2792-61-53      2001.0000000        2171.4770508       -170.47705078    
 2792-66-20      1972.0000000        2173.4687500       -201.46875000    
 2820-3-338      2046.0000000        2141.2138672       -95.213867188    
 2820-6-224      2047.0000000        2143.4909668       -96.490966797    
 2820-7-11       2038.0000000        2144.0349121       -106.03491211    
 2820-12-46      2037.0000000        2145.6608887       -108.66088867    
 2820-17-19      2033.0000000        2152.3869629       -119.38696289    
 2820-22-17      2029.0000000        2151.6552734       -122.65527344    
 2820-27-32      2035.0000000        2158.9860840       -123.98608398    
 2820-31-351     2032.0000000        2166.4919434       -134.49194336    
 2820-37-28      2030.0000000        2175.7399902       -145.73999023    
 2820-48-334     2020.0000000        2177.4509277       -157.45092773    
 2820-56-23      2034.0000000        2175.8146973       -141.81469727    
 2820-60-319     2016.0000000        2173.0302734       -157.03027344    
 2820-65-299     1978.0000000        2175.0090332       -197.00903320    
 2820-71-365     1985.0000000        2180.5019531       -195.50195312    
 2802-48-334     2023.0000000        2180.4924316       -157.49243164    
 2802-56-23      2039.0000000        2178.8386230       -139.83862305    
 2802-61-53      2020.0000000        2176.3537598       -156.35375977    
 2802-66-20      2007.0000000        2178.1325684       -171.13256836    
 2795-17-19      2040.0000000        2159.0273438       -119.02734375    
 2795-22-17      2037.0000000        2158.1999512       -121.19995117    
 2795-32-13      2041.0000000        2173.4682617       -132.46826172    
 2795-37-345     2028.0000000        2183.5661621       -155.56616211    
 2795-49-5       2031.0000000        2182.5490723       -151.54907227    
 2795-55-343     2037.0000000        2181.0388184       -144.03881836    
 2795-71-365     1992.0000000        2184.8581543       -192.85815430    
 2722-61-53      2062.0000000        2198.3178711       -136.31787109    
 2723-61-53      2064.0000000        2198.0935059       -134.09350586    
 2723-66-20      2037.0000000        2198.8886719       -161.88867188    
 2715-48-335     2064.0000000        2201.9870605       -137.98706055    
 2715-56-23      2077.0000000        2200.2089844       -123.20898438    
 2715-61-53      2059.0000000        2197.8896484       -138.88964844    
 2715-66-20      2034.0000000        2198.5791016       -164.57910156    
 2754-1-365      2084.0000000        2165.2880859       -81.288085938    
 2764-48-334     2045.0000000        2189.3764648       -144.37646484    
 2764-56-23      2057.0000000        2187.5588379       -130.55883789    
 2764-61-53      2040.0000000        2185.0036621       -145.00366211    
 2764-66-20      2012.0000000        2186.2670898       -174.26708984    
 2732-48-335     2047.0000000        2191.7988281       -144.79882812    
 2732-56-20      2062.0000000        2189.9663086       -127.96630859    
 2739-1-360      2087.0000000        2167.7717285       -80.771728516    
 2736-8-32       2077.0000000        2168.9475098       -91.947509766    
 2724-48-334     2054.0000000        2196.6628418       -142.66284180    
 2724-56-23      2067.0000000        2194.8303223       -127.83032227    
 2724-61-53      2053.0000000        2192.3520508       -139.35205078    
 2724-66-20      2027.0000000        2193.2392578       -166.23925781    
 2737-42-363     2008.0000000        2185.5520020       -177.55200195    
 2717-2-1        2069.0000000        2155.5510254       -86.551025391    
 2716-8-32       2057.0000000        2160.2700195       -103.27001953    
 2727-11-121     2014.0000000        2145.1491699       -131.14916992    
 2789-12-271     1861.0000000        1926.4680176       -65.468017578    
 2696-1-364      2056.0000000        2152.5202637       -96.520263672    
 2696-6-341      2041.0000000        2155.0185547       -114.01855469    
 2696-11-334     2035.0000000        2156.7609863       -121.76098633    
 2696-16-313     2031.0000000        2162.4455566       -131.44555664    
 2696-22-34      2031.0000000        2162.6645508       -131.66455078    
 2708-48-337     1999.0000000        2185.4448242       -186.44482422    
 2708-56-19      1995.0000000        2183.4760742       -188.47607422    
 2708-66-28      1983.0000000        2182.0097656       -199.00976562    
 2701-32-43      2047.0000000        2182.5302734       -135.53027344    
 2701-42-363     2029.0000000        2192.6293945       -163.62939453    
 2701-56-19      2055.0000000        2188.1721191       -133.17211914    
 2668-42-363     2099.0000000        2197.0598145       -98.059814453    
 2668-56-19      2095.0000000        2193.3740234       -98.374023438    
 2668-61-52      2091.0000000        2190.5642090       -99.564208984    
 2668-66-35      2087.0000000        2191.4528809       -104.45288086    
 2681-8-32       2095.0000000        2181.5388184       -86.538818359    
 2678-48-335     2074.0000000        2204.1166992       -130.11669922    
 2678-56-23      2096.0000000        2202.4533691       -106.45336914    
 2678-61-54      2071.0000000        2200.2204590       -129.22045898    
 2678-66-20      2046.0000000        2200.6772461       -154.67724609    
 2690-66-55      2036.0000000        2192.7475586       -156.74755859    
 2692-2-1        2090.0000000        2167.0551758       -77.055175781    
 2676-43-27      2084.0000000        2214.2373047       -130.23730469    
 2676-48-335     2082.0000000        2213.6147461       -131.61474609    
 2676-56-23      2090.0000000        2212.2177734       -122.21777344    
 2676-61-53      2073.0000000        2210.3708496       -137.37084961    
 2676-66-13      2057.0000000        2210.7297363       -153.72973633    
 2705-48-335     2072.0000000        2206.2309570       -134.23095703    
 2705-56-23      2084.0000000        2204.2390137       -120.23901367    
 2705-61-54      2067.0000000        2201.9230957       -134.92309570    
 2705-66-18      2041.0000000        2202.5312500       -161.53125000    
 2707-43-27      2068.0000000        2206.1459961       -138.14599609    
 2707-48-335     2067.0000000        2204.6259766       -137.62597656    
 2707-56-23      2080.0000000        2202.8242188       -122.82421875    
 2707-61-53      2062.0000000        2200.5554199       -138.55541992    
 2707-66-20      2036.0000000        2201.1931152       -165.19311523    
 2689-48-335     2068.0000000        2203.5732422       -135.57324219    
 2689-56-20      2084.0000000        2201.8542480       -117.85424805    
 2656-43-27      2089.0000000        2210.0544434       -121.05444336    
 2656-48-334     2086.0000000        2209.1247559       -123.12475586    
 2656-56-23      2110.0000000        2207.7519531       -97.751953125    
 2656-61-53      2083.0000000        2205.8083496       -122.80834961    
 2656-66-20      2058.0000000        2205.7653809       -147.76538086    
 2674-33-76      2097.0000000        2207.5898438       -110.58984375    
 2973-56-19      2361.0000000        2417.1298828       -56.129882812    
 2973-66-32      2345.0000000        2420.6379395       -75.637939453    
 2973-71-56      2326.0000000        2422.8549805       -96.854980469    
 2977-38-91      2353.0000000        2404.9033203       -51.903320312    
 2977-43-6       2361.0000000        2407.2529297       -46.252929688    
 2977-48-335     2303.0000000        2414.7875977       -111.78759766    
 2977-66-32      2340.0000000        2420.2253418       -80.225341797    
 2991-42-362     2218.0000000        2288.2500000       -70.250000000    
 2991-48-334     2217.0000000        2293.6647949       -76.664794922    
 2991-56-27      2215.0000000        2297.6120605       -82.612060547    
 2991-61-59      2212.0000000        2299.1208496       -87.120849609    
 2991-66-25      2208.0000000        2300.2553711       -92.255371094    
 2991-71-57      2201.0000000        2302.1435547       -101.14355469    
 2966-42-362     2195.0000000        2276.4685059       -81.468505859    
 2932-42-362     2079.0000000        2196.6979980       -117.69799805    
 2932-48-336     2078.0000000        2200.1843262       -122.18432617    
 2932-56-24      2073.0000000        2198.9033203       -125.90332031    
 2914-42-357     2126.0000000        2220.7697754       -94.769775391    
 2914-48-365     2119.0000000        2225.1047363       -106.10473633    
 2914-55-342     2106.0000000        2224.1452637       -118.14526367    
 2914-61-38      2100.0000000        2224.5546875       -124.55468750    
 2914-66-40      2091.0000000        2225.4768066       -134.47680664    
 2914-71-335     2076.0000000        2228.7751465       -152.77514648    
 2940-55-342     2119.0000000        2236.5578613       -117.55786133    
 2917-42-365     2135.0000000        2242.1623535       -107.16235352    
 2917-48-336     2132.0000000        2247.3110352       -115.31103516    
 2917-56-26      2119.0000000        2247.8828125       -128.88281250    
 2917-61-59      2102.0000000        2248.6784668       -146.67846680    
 2917-66-27      2108.0000000        2249.6601562       -141.66015625    
 2917-71-55      2097.0000000        2252.0146484       -155.01464844    
 2924-42-362     2164.0000000        2264.7646484       -100.76464844    
 2930-36-43      2337.0000000        2382.5385742       -45.538574219    
 2930-56-27      2345.0000000        2395.7260742       -50.726074219    
 2930-66-33      2292.0000000        2399.5522461       -107.55224609    
 2930-71-56      2273.0000000        2400.8537598       -127.85375977    
 2929-42-357     2414.0000000        2445.4423828       -31.442382812    
 2929-48-355     2427.0000000        2451.4289551       -24.428955078    
 2929-55-342     2428.0000000        2453.2387695       -25.238769531    
 2929-60-362     2395.0000000        2451.8889160       -56.888916016    
 2929-66-1       2345.0000000        2457.5092773       -112.50927734    
 2929-71-335     2323.0000000        2458.4084473       -135.40844727    
 2888-43-6       2314.0000000        2368.1340332       -54.134033203    
 2888-48-334     2312.0000000        2372.3864746       -60.386474609    
 2888-56-26      2312.0000000        2374.9492188       -62.949218750    
 2888-66-32      2268.0000000        2378.5642090       -110.56420898    
 2888-71-56      2248.0000000        2379.5908203       -131.59082031    
 2856-32-84      2310.0000000        2347.6938477       -37.693847656    
 2852-43-5       2289.0000000        2361.0405273       -72.040527344    
 2852-56-19      2286.0000000        2368.6313477       -82.631347656    
 2852-66-35      2251.0000000        2372.0769043       -121.07690430    
 2852-71-56      2229.0000000        2373.1367188       -144.13671875    
 2869-43-8       2322.0000000        2381.3713379       -59.371337891    
 2869-48-334     2322.0000000        2386.7387695       -64.738769531    
 2869-56-24      2325.0000000        2389.1345215       -64.134521484    
 2899-42-362     2169.0000000        2276.1379395       -107.13793945    
 2899-48-338     2165.0000000        2281.6401367       -116.64013672    
 2903-33-257     2172.0000000        2262.0637207       -90.063720703    
 2908-42-357     2149.0000000        2260.2385254       -111.23852539    
 2908-48-356     2145.0000000        2265.6364746       -120.63647461    
 2908-55-342     2130.0000000        2266.5275879       -136.52758789    
 2908-66-26      2118.0000000        2268.6384277       -150.63842773    
 2908-71-335     2103.0000000        2270.8842773       -167.88427734    
 2879-55-342     2098.0000000        2226.5881348       -128.58813477    
 2879-61-40      2094.0000000        2226.6955566       -132.69555664    
 2879-66-19      2087.0000000        2227.6882324       -140.68823242    
 2879-71-335     2071.0000000        2230.7111816       -159.71118164    
 2878-66-26      2111.0000000        2258.4733887       -147.47338867    
 2878-71-335     2094.0000000        2260.6757812       -166.67578125    
 2897-1-274      2168.0000000        2192.7817383       -24.781738281    
 2897-6-284      2163.0000000        2193.0671387       -30.067138672    
 2898-11-34      2156.0000000        2192.5273438       -36.527343750    
 2898-16-361     2147.0000000        2194.5268555       -47.526855469    
 2898-37-33      2120.0000000        2210.5146484       -90.514648438    
 2882-43-32      2090.0000000        2198.5485840       -108.54858398    
 2882-48-365     2088.0000000        2200.1318359       -112.13183594    
 2882-55-342     2079.0000000        2198.4436035       -119.44360352    
 2882-61-38      2073.0000000        2197.2905273       -124.29052734    
 2882-66-40      2061.0000000        2198.5463867       -137.54638672    
 2882-71-335     2048.0000000        2202.8532715       -154.85327148    
 2870-33-274     2085.0000000        2191.4062500       -106.40625000    
 2862-33-135     2110.0000000        2200.4699707       -90.469970703    
 2824-66-31      2077.0000000        2219.3637695       -142.36376953    
 2824-71-54      2069.0000000        2222.1010742       -153.10107422    
 2807-49-5       2134.0000000        2240.6367188       -106.63671875    
 2807-55-342     2112.0000000        2239.5029297       -127.50292969    
 2807-71-62      2078.0000000        2242.2504883       -164.25048828    
 2797-71-62      2081.0000000        2262.8151855       -181.81518555    
 2845-66-35      2167.0000000        2319.8142090       -152.81420898    
 2845-71-62      2154.0000000        2320.1499023       -166.14990234    
 2841-1-274      2225.0000000        2265.3334961       -40.333496094    
 2841-6-284      2221.0000000        2264.8972168       -43.897216797    
 2841-11-34      2216.0000000        2264.9770508       -48.977050781    
 2841-16-361     2204.0000000        2266.6499023       -62.649902344    
 2841-38-91      2174.0000000        2278.9399414       -104.93994141    
 2841-39-91      2173.0000000        2279.5957031       -106.59570312    
 2841-42-364     2172.0000000        2284.3896484       -112.38964844    
 2841-48-336     2167.0000000        2287.8442383       -120.84423828    
 2815-56-24      2141.0000000        2268.7170410       -127.71704102    
 2801-33-52      2182.0000000        2256.1076660       -74.107666016    
 2844-43-6       2206.0000000        2323.2932129       -117.29321289    
 2844-48-334     2200.0000000        2325.5527344       -125.55273438    
 2844-56-19      2197.0000000        2328.2883301       -131.28833008    
 2844-66-34      2189.0000000        2331.5236816       -142.52368164    
 2844-71-61      2232.0000000        2331.9418945       -99.941894531    
 2819-56-17      2213.0000000        2319.6328125       -106.63281250    
 2825-56-19      2187.0000000        2337.4035645       -150.40356445    
 2825-66-35      2215.0000000        2340.6330566       -125.63305664    
 2794-33-62      2149.0000000        2273.6945801       -124.69458008    
 2791-42-356     2195.0000000        2278.4943848       -83.494384766    
 2791-48-337     2171.0000000        2282.5056152       -111.50561523    
 2791-61-61      2160.0000000        2283.0969238       -123.09692383    
 2791-66-26      2146.0000000        2285.1203613       -139.12036133    
 2806-42-356     2222.0000000        2301.3493652       -79.349365234    
 2806-48-337     2214.0000000        2306.2456055       -92.245605469    
 2840-43-5       2293.0000000        2374.7180176       -81.718017578    
 2840-48-334     2294.0000000        2380.3894043       -86.389404297    
 2840-56-19      2291.0000000        2382.7788086       -91.778808594    
 2840-61-56      2278.0000000        2382.5305176       -104.53051758    
 2840-66-32      2257.0000000        2386.2756348       -129.27563477    
 2827-66-32      2236.0000000        2353.6040039       -117.60400391    
 2827-71-61      2213.0000000        2354.8483887       -141.84838867    
 2813-66-26      2210.0000000        2332.0815430       -122.08154297    
 2813-71-323     2178.0000000        2333.3125000       -155.31250000    
 2814-42-357     2232.0000000        2317.5517578       -85.551757812    
 2814-55-342     2222.0000000        2324.6535645       -102.65356445    
 2814-61-35      2215.0000000        2325.0893555       -110.08935547    
 2814-66-26      2200.0000000        2327.5778809       -127.57788086    
 2804-42-357     2231.0000000        2320.1513672       -89.151367188    
 2804-55-342     2222.0000000        2327.0429688       -105.04296875    
 2804-61-35      2214.0000000        2327.4277344       -113.42773438    
 2804-66-26      2199.0000000        2329.9282227       -130.92822266    
 2812-42-335     2311.0000000        2347.8378906       -36.837890625    
 2812-48-355     2307.0000000        2353.2526855       -46.252685547    
 2812-55-342     2303.0000000        2355.3415527       -52.341552734    
 2812-61-35      2295.0000000        2356.0605469       -61.060546875    
 2812-71-323     2247.0000000        2360.0031738       -113.00317383    
 2765-42-357     2207.0000000        2290.5964355       -83.596435547    
 2765-48-355     2200.0000000        2296.7380371       -96.738037109    
 2765-55-342     2197.0000000        2296.9353027       -99.935302734    
 2765-61-35      2192.0000000        2297.8024902       -105.80249023    
 2765-66-26      2180.0000000        2299.2937012       -119.29370117    
 2765-71-323     2156.0000000        2300.8664551       -144.86645508    
 2728-8-69       2235.0000000        2252.8288574       -17.828857422    
 2719-42-357     2193.0000000        2263.3032227       -70.303222656    
 2719-48-356     2188.0000000        2267.7265625       -79.726562500    
 2719-55-343     2181.0000000        2267.3142090       -86.314208984    
 2726-42-357     2200.0000000        2281.9899902       -81.989990234    
 2726-48-355     2193.0000000        2287.7675781       -94.767578125    
 2726-55-342     2190.0000000        2287.6672363       -97.667236328    
 2726-61-35      2185.0000000        2288.4780273       -103.47802734    
 2726-66-26      2173.0000000        2289.8815918       -116.88159180    
 2726-71-323     2151.0000000        2291.3627930       -140.36279297    
 2784-71-62      2079.0000000        2261.8681641       -182.86816406    
 2730-56-24      2146.0000000        2261.8066406       -115.80664062    
 2730-61-54      2138.0000000        2261.8059082       -123.80590820    
 2730-66-18      2121.0000000        2263.4360352       -142.43603516    
 2781-16-361     2176.0000000        2239.2646484       -63.264648438    
 2782-17-7       2174.0000000        2235.9338379       -61.933837891    
 2782-71-62      2077.0000000        2256.5537109       -179.55371094    
 2762-48-338     2121.0000000        2255.9731445       -134.97314453    
 2785-56-23      2118.0000000        2253.0078125       -135.00781250    
 2785-66-19      2086.0000000        2254.5229492       -168.52294922    
 2757-56-24      2116.0000000        2251.9274902       -135.92749023    
 2757-66-19      2086.0000000        2253.3532715       -167.35327148    
 2763-56-24      2114.0000000        2244.2153320       -130.21533203    
 2763-66-19      2080.0000000        2245.2712402       -165.27124023    
 2729-56-24      2122.0000000        2241.5014648       -119.50146484    
 2729-66-18      2088.0000000        2242.2827148       -154.28271484    
 2720-16-298     2169.0000000        2230.1372070       -61.137207031    
 2720-22-31      2162.0000000        2233.1513672       -71.151367188    
 2706-66-35      2088.0000000        2250.1027832       -162.10278320    
 2710-56-24      2141.0000000        2249.0654297       -108.06542969    
 2755-56-23      2094.0000000        2222.6933594       -128.69335938    
 2755-61-54      2084.0000000        2221.5683594       -137.56835938    
 2755-66-18      2074.0000000        2222.4821777       -148.48217773    
 2735-1-365      2237.0000000        2200.8493652        36.150634766    
 2778-33-182     2092.0000000        2201.0517578       -109.05175781    
 2759-34-121     2105.0000000        2206.5031738       -101.50317383    
 2738-66-26      2051.0000000        2209.6940918       -158.69409180    
 2738-71-348     2053.0000000        2212.9702148       -159.97021484    
 2733-10-280     2107.0000000        2199.9531250       -92.953125000    
 2733-22-19      2094.0000000        2205.5168457       -111.51684570    
 2733-42-362     2087.0000000        2220.0009766       -133.00097656    
 2733-48-362     2085.0000000        2220.5864258       -135.58642578    
 2733-55-342     2082.0000000        2219.1206055       -137.12060547    
 2733-61-38      2071.0000000        2217.6987305       -146.69873047    
 2733-66-40      2050.0000000        2218.4738770       -168.47387695    
 2733-71-348     2045.0000000        2221.2622070       -176.26220703    
 2698-49-8       2085.0000000        2217.0786133       -132.07861328    
 2698-55-342     2092.0000000        2215.7651367       -123.76513672    
 2698-61-10      2091.0000000        2214.0097656       -123.00976562    
 2698-71-348     2053.0000000        2217.6857910       -164.68579102    
 2665-42-362     2093.0000000        2216.8894043       -123.88940430    
 2665-48-362     2091.0000000        2216.3315430       -125.33154297    
 2665-55-342     2098.0000000        2215.4672852       -117.46728516    
 2665-61-4       2086.0000000        2213.5080566       -127.50805664    
 2665-66-26      2056.0000000        2213.8283691       -157.82836914    
 2665-71-348     2061.0000000        2217.0183105       -156.01831055    
 2664-1-360      2134.0000000        2199.3610840       -65.361083984    
 2664-6-341      2125.0000000        2201.3027344       -76.302734375    
 2662-42-362     2094.0000000        2222.0781250       -128.07812500    
 2662-48-361     2091.0000000        2222.1088867       -131.10888672    
 2662-55-342     2094.0000000        2221.4406738       -127.44067383    
 2662-71-348     2057.0000000        2223.0715332       -166.07153320    
 2659-55-342     2093.0000000        2221.4406738       -128.44067383    
 2659-61-11      2063.0000000        2219.9116211       -156.91162109    
 2659-66-26      2057.0000000        2220.1828613       -163.18286133    
 2659-71-348     2060.0000000        2223.0715332       -163.07153320    
 2658-1-92       2100.0000000        2206.2226562       -106.22265625    
 2742-17-3       2141.0000000        2220.5041504       -79.504150391    
 2742-22-1       2140.0000000        2222.4177246       -82.417724609    
 2742-38-91      2123.0000000        2229.7277832       -106.72778320    
 2742-56-24      2107.0000000        2234.0593262       -127.05932617    
 2742-61-54      2093.0000000        2233.3986816       -140.39868164    
 2742-66-31      2068.0000000        2234.2041016       -166.20410156    
 2742-71-62      2064.0000000        2235.9973145       -171.99731445    
 2683-42-362     2093.0000000        2224.5654297       -131.56542969    
 2683-48-362     2090.0000000        2224.9497070       -134.94970703    
 2683-55-342     2081.0000000        2223.9956055       -142.99560547    
 2683-61-32      2079.0000000        2222.7199707       -143.71997070    
 2683-66-40      2053.0000000        2223.1936035       -170.19360352    
 2686-1-274      2157.0000000        2209.5646973       -52.564697266    
 2686-6-283      2150.0000000        2210.4003906       -60.400390625    
 2686-10-280     2137.0000000        2211.1308594       -74.130859375    
 2666-1-274      2111.0000000        2203.1765137       -92.176513672    
 2666-6-283      2101.0000000        2204.4721680       -103.47216797    
 2670-17-3       2140.0000000        2222.4438477       -82.443847656    
 2670-22-31      2138.0000000        2224.0463867       -86.046386719    
 2670-31-351     2129.0000000        2229.1621094       -100.16210938    
 2670-36-50      2126.0000000        2229.5773926       -103.57739258    
 2670-42-352     2116.0000000        2233.9240723       -117.92407227    
 2670-56-24      2108.0000000        2234.3303223       -126.33032227    
 2670-61-54      2091.0000000        2233.7463379       -142.74633789    
 2670-66-33      2063.0000000        2234.1938477       -171.19384766    
 2670-71-62      2070.0000000        2236.0996094       -166.09960938    
 2703-36-244     2194.0000000        2273.8696289       -79.869628906    
 2703-48-355     2189.0000000        2281.3010254       -92.301025391    
 2703-55-343     2184.0000000        2280.9655762       -96.965576172    
 2703-61-35      2180.0000000        2281.8034668       -101.80346680    
 2703-66-19      2178.0000000        2282.9829102       -104.98291016    
 2703-71-323     2147.0000000        2284.4033203       -137.40332031    
 2680-71-61      2159.0000000        2271.0837402       -112.08374023    
 2704-42-335     2188.0000000        2263.0185547       -75.018554688    
 2704-48-356     2184.0000000        2267.5273438       -83.527343750    
 2672-42-356     2170.0000000        2255.4775391       -85.477539062    
 2672-66-33      2154.0000000        2259.7785645       -105.77856445    
 2672-71-63      2142.0000000        2261.2443848       -119.24438477    
 2657-42-356     2158.0000000        2262.1740723       -104.17407227    
 2657-66-33      2152.0000000        2266.9914551       -114.99145508    
 2685-42-356     2197.0000000        2269.0026855       -72.002685547    
 2685-48-355     2193.0000000        2273.4245605       -80.424560547    
 2685-55-343     2186.0000000        2273.2705078       -87.270507812    
 2685-61-35      2183.0000000        2274.1352539       -91.135253906    
 2685-66-26      2173.0000000        2275.0932617       -102.09326172    
 2685-71-323     2154.0000000        2276.3488770       -122.34887695    
 2983-16-361     2632.0000000        2588.6855469        43.314453125    
 2983-22-31      2610.0000000        2601.3620605        8.6379394531    
 2983-27-11      2618.0000000        2613.3815918        4.6184082031    
 2980-43-8       2567.0000000        2597.1616211       -30.161621094    
 2980-48-334     2581.0000000        2597.7302246       -16.730224609    
 2980-56-24      2581.0000000        2600.0683594       -19.068359375    
 2990-16-361     2525.0000000        2538.7795410       -13.779541016    
 2990-48-337     2544.0000000        2577.2810059       -33.281005859    
 2990-56-24      2562.0000000        2579.3142090       -17.314208984    
 2956-2-85       2545.0000000        2518.1831055        26.816894531    
 2956-6-284      2530.0000000        2516.0717773        13.928222656    
 2956-12-261     2511.0000000        2516.8425293       -5.8425292969    
 2956-16-133     2520.0000000        2518.5693359        1.4306640625    
 2956-26-124     2513.0000000        2542.3442383       -29.344238281    
 2956-37-34      2520.0000000        2541.4077148       -21.407714844    
 2956-43-5       2537.0000000        2554.6564941       -17.656494141    
 2956-48-334     2551.0000000        2555.3442383       -4.3442382812    
 2956-56-27      2553.0000000        2557.3715820       -4.3715820312    
 2956-66-35      2495.0000000        2562.6948242       -67.694824219    
 2956-71-12      2500.0000000        2561.9980469       -61.998046875    
 2956-71-365     2513.0000000        2561.0268555       -48.026855469    
 2931-11-62      2429.0000000        2447.5429688       -18.542968750    
 2931-16-361     2420.0000000        2449.9558105       -29.955810547    
 2931-22-31      2415.0000000        2457.8637695       -42.863769531    
 2635-56-25      1731.0000000        1906.1936035       -175.19360352    
 2595-16-355     1833.0000000        1857.2163086       -24.216308594    
 2595-48-349     1721.0000000        1901.8266602       -180.82666016    
 2595-55-355     1728.0000000        1909.0957031       -181.09570312    
 2595-61-4       1733.0000000        1912.7447510       -179.74475098    
 2595-66-47      1743.0000000        1916.3063965       -173.30639648    
 2595-71-5       1753.0000000        1934.9094238       -181.90942383    
 2595-71-365     1755.0000000        1941.0656738       -186.06567383    
 2594-48-350     1725.0000000        1902.1336670       -177.13366699    
 2594-55-355     1732.0000000        1909.7918701       -177.79187012    
 2594-66-47      1746.0000000        1917.7050781       -171.70507812    
 2594-71-5       1757.0000000        1937.9739990       -180.97399902    
 2594-71-365     1760.0000000        1944.3852539       -184.38525391    
 2599-66-47      1746.0000000        1916.1879883       -170.18798828    
 2599-71-5       1756.0000000        1933.9681396       -177.96813965    
 2599-71-365     1758.0000000        1940.1221924       -182.12219238    
 2596-42-351     1713.0000000        1889.3312988       -176.33129883    
 2596-48-349     1721.0000000        1901.8726807       -180.87268066    
 2596-55-355     1728.0000000        1908.7221680       -180.72216797    
 2596-61-4       1733.0000000        1912.0921631       -179.09216309    
 2596-66-34      1742.0000000        1915.2747803       -173.27478027    
 2596-71-5       1753.0000000        1932.7265625       -179.72656250    
 2596-71-365     1755.0000000        1938.7124023       -183.71240234    
 2591-56-3       1728.0000000        1908.4724121       -180.47241211    
 2591-61-4       1732.0000000        1911.8800049       -179.88000488    
 2591-66-34      1742.0000000        1915.1774902       -173.17749023    
 2591-71-5       1753.0000000        1932.4783936       -179.47839355    
 2591-71-365     1755.0000000        1938.4482422       -183.44824219    
 2588-42-351     1710.0000000        1888.5300293       -178.53002930    
 2588-48-349     1715.0000000        1900.9874268       -185.98742676    
 2588-55-355     1722.0000000        1907.6398926       -185.63989258    
 2588-61-4       1726.0000000        1910.9211426       -184.92114258    
 2588-66-47      1736.0000000        1914.1060791       -178.10607910    
 2588-71-4       1746.0000000        1929.2642822       -183.26428223    
 2588-71-365     1749.0000000        1934.9150391       -185.91503906    
 2564-12-171     1866.0000000        1857.3203125        8.6796875000    
 2564-16-355     1833.0000000        1857.6683350       -24.668334961    
 2564-22-37      1807.0000000        1858.5670166       -51.567016602    
 2530-42-351     1722.0000000        1890.5148926       -168.51489258    
 2530-48-349     1730.0000000        1903.0130615       -173.01306152    
 2530-55-355     1739.0000000        1911.0937500       -172.09375000    
 2530-61-6       1743.0000000        1915.0427246       -172.04272461    
 2530-66-47      1754.0000000        1918.6696777       -164.66967773    
 2530-71-5       1764.0000000        1937.9353027       -173.93530273    
 2530-71-365     1766.0000000        1944.2717285       -178.27172852    
 2529-17-6       1844.0000000        1860.4162598       -16.416259766    
 2529-56-24      1737.0000000        1912.6215820       -175.62158203    
 2529-61-52      1742.0000000        1916.8050537       -174.80505371    
 2529-66-19      1751.0000000        1921.1322021       -170.13220215    
 2587-1-105      1880.0000000        1857.4498291        22.550170898    
 2587-7-3        1880.0000000        1857.3695068        22.630493164    
 2449-32-85      1798.0000000        1880.0491943       -82.049194336    
 2492-48-349     1742.0000000        1906.8878174       -164.88781738    
 2492-61-4       1757.0000000        1919.6801758       -162.68017578    
 2492-66-39      1766.0000000        1926.0476074       -160.04760742    
 2492-71-6       1776.0000000        1955.8928223       -179.89282227    
 2492-71-365     1779.0000000        1963.7495117       -184.74951172    
 2491-56-3       1769.0000000        1914.8582764       -145.85827637    
 2491-61-6       1771.0000000        1919.3166504       -148.31665039    
 2491-66-39      1779.0000000        1926.6335449       -147.63354492    
 2491-71-6       1788.0000000        1957.2099609       -169.20996094    
 2491-71-365     1789.0000000        1965.1694336       -176.16943359    
 2450-48-349     1771.0000000        1908.5347900       -137.53479004    
 2450-55-354     1777.0000000        1917.0020752       -140.00207520    
 2450-61-4       1779.0000000        1921.2152100       -142.21520996    
 2450-66-39      1785.0000000        1929.5714111       -144.57141113    
 2450-71-6       1795.0000000        1961.5339355       -166.53393555    
 2450-71-365     1796.0000000        1970.3828125       -174.38281250    
 2451-48-349     1763.0000000        1908.3394775       -145.33947754    
 2451-55-355     1771.0000000        1916.6717529       -145.67175293    
 2451-61-4       1774.0000000        1920.8800049       -146.88000488    
 2451-66-27      1778.0000000        1928.2229004       -150.22290039    
 2451-71-6       1788.0000000        1961.0932617       -173.09326172    
 2451-71-365     1790.0000000        1969.3916016       -179.39160156    
 2442-48-348     1728.0000000        1905.7418213       -177.74182129    
 2442-56-23      1738.0000000        1914.7027588       -176.70275879    
 2442-60-319     1740.0000000        1918.7413330       -178.74133301    
 2442-66-26      1748.0000000        1924.2584229       -176.25842285    
 2442-71-11      1762.0000000        1950.1040039       -188.10400391    
 2452-12-171     1883.0000000        1862.6452637        20.354736328    
 2452-16-314     1834.0000000        1862.8731689       -28.873168945    
 2452-32-85      1756.0000000        1876.2076416       -120.20764160    
 2452-35-53      1745.0000000        1880.5607910       -135.56079102    
 2390-42-351     1719.0000000        1891.5764160       -172.57641602    
 2390-48-349     1727.0000000        1903.5682373       -176.56823730    
 2390-55-355     1736.0000000        1912.1284180       -176.12841797    
 2390-66-47      1751.0000000        1921.0787354       -170.07873535    
 2390-71-6       1762.0000000        1939.9564209       -177.95642090    
 2390-71-365     1764.0000000        1946.6138916       -182.61389160    
 2303-42-351     1724.0000000        1892.3236084       -168.32360840    
 2303-48-349     1730.0000000        1903.9941406       -173.99414062    
 2303-55-355     1738.0000000        1912.4229736       -174.42297363    
 2303-61-4       1743.0000000        1917.1170654       -174.11706543    
 2303-66-47      1752.0000000        1921.9544678       -169.95446777    
 2303-71-6       1763.0000000        1941.1314697       -178.13146973    
 2303-71-365     1765.0000000        1947.9543457       -182.95434570    
 2417-56-24      1738.0000000        1915.1302490       -177.13024902    
 2417-61-54      1743.0000000        1919.3248291       -176.32482910    
 2411-56-24      1738.0000000        1915.1491699       -177.14916992    
 2411-61-54      1743.0000000        1919.3417969       -176.34179688    
 2259-42-352     1727.0000000        1896.3018799       -169.30187988    
 2259-56-3       1745.0000000        1916.6942139       -171.69421387    
 2296-22-38      1830.0000000        1866.6359863       -36.635986328    
 2296-42-352     1741.0000000        1897.2895508       -156.28955078    
 2296-48-350     1751.0000000        1908.8696289       -157.86962891    
 2296-55-354     1759.0000000        1917.3546143       -158.35461426    
 2296-61-6       1764.0000000        1921.2191162       -157.21911621    
 2296-66-39      1772.0000000        1930.5187988       -158.51879883    
 2296-71-6       1781.0000000        1966.5117188       -185.51171875    
 2296-71-365     1782.0000000        1975.4556885       -193.45568848    
 2302-48-350     1777.0000000        1910.4785156       -133.47851562    
 2302-55-354     1777.0000000        1918.8562012       -141.85620117    
 2302-61-6       1789.0000000        1922.2685547       -133.26855469    
 2302-66-32      1790.0000000        1932.8281250       -142.82812500    
 2302-71-6       1799.0000000        1973.1591797       -174.15917969    
 2302-71-365     1800.0000000        1982.4678955       -182.46789551    
 2301-37-33      1770.0000000        1891.6434326       -121.64343262    
 2301-42-352     1779.0000000        1900.2427979       -121.24279785    
 2301-48-349     1792.0000000        1911.1300049       -119.13000488    
 2301-55-354     1797.0000000        1919.6270752       -122.62707520    
 2301-66-1       1802.0000000        1934.7728271       -132.77282715    
 2301-71-6       1809.0000000        1979.0051270       -170.00512695    
 2301-71-365     1811.0000000        1988.6883545       -177.68835449    
 2440-55-354     1790.0000000        1917.0688477       -127.06884766    
 2440-61-6       1793.0000000        1922.1785889       -129.17858887    
 2440-65-342     1796.0000000        1933.5477295       -137.54772949    
 2440-71-6       1808.0000000        1976.5239258       -168.52392578    
 2440-71-365     1809.0000000        1985.7221680       -176.72216797    
 2300-16-354     1887.0000000        1868.9049072        18.095092773    
 2300-48-350     1798.0000000        1912.5885010       -114.58850098    
 2300-55-355     1805.0000000        1921.1468506       -116.14685059    
 2300-61-6       1809.0000000        1925.0815430       -116.08154297    
 2300-65-341     1808.0000000        1938.7918701       -130.79187012    
 2300-71-7       1820.0000000        1990.1066895       -170.10668945    
 2300-71-365     1820.0000000        1998.6108398       -178.61083984    
 2220-12-311     1928.0000000        1870.2907715        57.709228516    
 2220-16-356     1891.0000000        1870.7805176        20.219482422    
 2220-48-350     1810.0000000        1912.7216797       -102.72167969    
 2220-55-354     1812.0000000        1920.8785400       -108.87854004    
 2220-61-7       1815.0000000        1925.8472900       -110.84729004    
 2220-66-39      1812.0000000        1946.3074951       -134.30749512    
 2220-71-7       1827.0000000        2005.1790771       -178.17907715    
 2220-71-365     1826.0000000        2015.9139404       -189.91394043    
 2222-55-354     1806.0000000        1920.6126709       -114.61267090    
 2222-61-6       1815.0000000        1925.1146240       -110.11462402    
 2222-65-341     1809.0000000        1942.6004639       -133.60046387    
 2222-71-7       1822.0000000        1999.9605713       -177.96057129    
 2222-71-365     1821.0000000        2010.5109863       -189.51098633    
 2096-48-350     1816.0000000        1914.1218262       -98.121826172    
 2096-55-354     1818.0000000        1922.0325928       -104.03259277    
 2096-61-6       1824.0000000        1926.2166748       -102.21667480    
 2096-65-343     1814.0000000        1946.6197510       -132.61975098    
 2096-71-7       1828.0000000        2011.1572266       -183.15722656    
 2096-71-365     1827.0000000        2022.4173584       -195.41735840    
 2089-12-171     1917.0000000        1869.9179688        47.082031250    
 2089-42-352     1788.0000000        1900.9715576       -112.97155762    
 2089-48-350     1796.0000000        1911.4632568       -115.46325684    
 2089-55-354     1801.0000000        1920.1156006       -119.11560059    
 2089-61-6       1803.0000000        1923.5373535       -120.53735352    
 2089-66-55      1803.0000000        1939.5903320       -136.59033203    
 2089-71-6       1809.0000000        1990.3988037       -181.39880371    
 2089-71-365     1810.0000000        2000.8815918       -190.88159180    
 2088-42-352     1799.0000000        1902.1412354       -103.14123535    
 2088-48-350     1807.0000000        1912.4128418       -105.41284180    
 2088-55-354     1811.0000000        1921.0799561       -110.07995605    
 2088-61-6       1813.0000000        1924.5157471       -111.51574707    
 2088-66-48      1811.0000000        1942.9300537       -131.93005371    
 2088-71-6       1818.0000000        1998.6898193       -180.68981934    
 2088-71-365     1819.0000000        2009.3753662       -190.37536621    
 2620-61-53      1751.0000000        1918.8715820       -167.87158203    
 2620-66-28      1754.0000000        1925.9785156       -171.97851562    
 2630-1-86       1889.0000000        1864.6177979        24.382202148    
 2615-21-353     1856.0000000        1865.1779785       -9.1779785156    
 2615-27-20      1833.0000000        1868.1450195       -35.145019531    
 2615-36-64      1802.0000000        1879.7193604       -77.719360352    
 2615-42-350     1766.0000000        1890.5275879       -124.52758789    
 2618-56-23      1750.0000000        1912.4875488       -162.48754883    
 2618-61-53      1751.0000000        1917.9755859       -166.97558594    
 2618-66-28      1753.0000000        1924.1771240       -171.17712402    
 2616-1-109      1890.0000000        1863.6121826        26.387817383    
 2616-7-10       1889.0000000        1864.3599854        24.640014648    
 2616-10-319     1878.0000000        1864.4232178        13.576782227    
 2607-56-23      1754.0000000        1913.4711914       -159.47119141    
 2607-61-53      1751.0000000        1919.0162354       -168.01623535    
 2607-66-28      1752.0000000        1927.2263184       -175.22631836    
 2578-2-305      1903.0000000        1862.7592773        40.240722656    
 2582-1-105      1898.0000000        1863.7749023        34.225097656    
 2577-56-23      1757.0000000        1913.8564453       -156.85644531    
 2577-61-53      1758.0000000        1919.4683838       -161.46838379    
 2577-66-28      1760.0000000        1928.7224121       -168.72241211    
 2573-56-27      1759.0000000        1913.9674072       -154.96740723    
 2553-33-188     1780.0000000        1878.6208496       -98.620849609    
 2553-56-27      1769.0000000        1914.1873779       -145.18737793    
 2574-1-107      1894.0000000        1864.8010254        29.198974609    
 2580-1-109      1894.0000000        1865.8386230        28.161376953    
 2571-21-354     1857.0000000        1866.8626709       -9.8626708984    
 2498-37-34      1812.0000000        1885.5871582       -73.587158203    
 2498-42-350     1797.0000000        1894.7114258       -97.711425781    
 2519-56-23      1776.0000000        1915.1269531       -139.12695312    
 2507-48-300     1781.0000000        1906.2294922       -125.22949219    
 2507-55-318     1786.0000000        1915.3514404       -129.35144043    
 2507-60-313     1786.0000000        1921.0015869       -135.00158691    
 2507-65-364     1792.0000000        1933.1103516       -141.11035156    
 2507-71-350     1807.0000000        1983.9041748       -176.90417480    
 2508-48-300     1780.0000000        1906.2294922       -126.22949219    
 2508-55-318     1782.0000000        1915.3514404       -133.35144043    
 2508-60-313     1782.0000000        1921.0015869       -139.00158691    
 2508-65-364     1788.0000000        1933.1103516       -145.11035156    
 2508-71-350     1808.0000000        1983.9041748       -175.90417480    
 2448-56-25      1795.0000000        1917.0435791       -122.04357910    
 2448-61-52      1799.0000000        1923.4676514       -124.46765137    
 2448-66-20      1803.0000000        1934.7467041       -131.74670410    
 2311-56-23      1817.0000000        1919.0972900       -102.09729004    
 2311-61-53      1822.0000000        1926.6793213       -104.67932129    
 2311-66-28      1823.0000000        1950.6434326       -127.64343262    
 2084-2-305      1948.0000000        1874.8388672        73.161132812    
 2099-42-352     1819.0000000        1904.8902588       -85.890258789    
 2099-48-365     1824.0000000        1915.3221436       -91.322143555    
 2099-55-354     1826.0000000        1922.1711426       -96.171142578    
 2099-61-7       1837.0000000        1927.6800537       -90.680053711    
 2099-65-344     1824.0000000        1952.1326904       -128.13269043    
 2099-71-365     1840.0000000        2034.6527100       -194.65270996    
 2087-71-365     1825.0000000        2036.3076172       -211.30761719    
 2110-71-365     1844.0000000        2041.0273438       -197.02734375    
 2040-65-364     1850.0000000        1966.7862549       -116.78625488    
 2040-71-365     1864.0000000        2065.5415039       -201.54150391    
 2034-65-364     1830.0000000        1963.3609619       -133.36096191    
 2034-71-12      1876.0000000        2044.0664062       -168.06640625    
 2034-71-365     1838.0000000        2054.8068848       -216.80688477    
 2009-71-8       1870.0000000        2045.5114746       -175.51147461    
 2009-71-365     1858.0000000        2056.4687500       -198.46875000    
 2008-71-8       1845.0000000        2034.4570312       -189.45703125    
 2008-71-365     1838.0000000        2045.5964355       -207.59643555    
 1923-16-315     1894.0000000        1875.8126221        18.187377930    
 1923-22-38      1884.0000000        1876.2008057        7.7991943359    
 1923-27-24      1863.0000000        1880.5773926       -17.577392578    
 1923-32-85      1840.0000000        1888.3641357       -48.364135742    
 1923-36-1       1840.0000000        1894.3968506       -54.396850586    
 1923-42-352     1841.0000000        1905.7606201       -64.760620117    
 1923-48-348     1841.0000000        1915.3665771       -74.366577148    
 1923-55-354     1840.0000000        1923.2481689       -83.248168945    
 1923-60-323     1856.0000000        1929.2027588       -73.202758789    
 1923-65-343     1828.0000000        1962.4458008       -134.44580078    
 1923-71-8       1848.0000000        2047.5541992       -199.55419922    
 1923-71-365     1844.0000000        2059.0686035       -215.06860352    
 1914-55-354     1840.0000000        1924.7545166       -84.754516602    
 1914-61-7       1855.0000000        1929.9503174       -74.950317383    
 1914-71-8       1848.0000000        2052.9025879       -204.90258789    
 1919-71-8       1853.0000000        2044.8170166       -191.81701660    
 1914-71-365     1844.0000000        2064.3552246       -220.35522461    
 1919-71-365     1847.0000000        2056.3173828       -209.31738281    
 1938-65-364     1848.0000000        1972.7026367       -124.70263672    
 1960-65-364     1842.0000000        1968.8919678       -126.89196777    
 1922-12-171     1950.0000000        1875.9914551        74.008544922    
 1922-42-352     1846.0000000        1906.9389648       -60.938964844    
 1922-48-349     1847.0000000        1916.3497314       -69.349731445    
 1922-55-354     1846.0000000        1923.9719238       -77.971923828    
 1922-61-7       1873.0000000        1932.3460693       -59.346069336    
 1922-71-8       1884.0000000        2063.1940918       -179.19409180    
 1922-71-365     1872.0000000        2084.2739258       -212.27392578    
 1918-10-108     1955.0000000        1876.1440430        78.855957031    
 1918-66-32      1850.0000000        1980.8624268       -130.86242676    
 1918-71-8       1881.0000000        2075.2048340       -194.20483398    
 1918-71-365     1866.0000000        2085.6918945       -219.69189453    
 1959-71-8       1888.0000000        2058.1735840       -170.17358398    
 1959-71-365     1873.0000000        2069.1481934       -196.14819336    
 1944-71-365     1882.0000000        2093.0925293       -211.09252930    
 1988-35-4       1872.0000000        1892.9139404       -20.913940430    
 1908-56-18      1862.0000000        1922.1235352       -60.123535156    
 1908-66-18      1848.0000000        1980.0032959       -132.00329590    
 2638-33-46      2108.0000000        2207.4992676       -99.499267578    
 2648-35-95      2092.0000000        2206.0393066       -114.03930664    
 2627-48-336     2088.0000000        2212.9060059       -124.90600586    
 2619-2-1        2145.0000000        2198.6069336       -53.606933594    
 2642-12-43      2100.0000000        2189.0100098       -89.010009766    
 2649-17-23      2099.0000000        2193.8842773       -94.884277344    
 2649-22-20      2098.0000000        2193.0903320       -95.090332031    
 2649-42-363     2087.0000000        2208.3369141       -121.33691406    
 2649-48-336     2084.0000000        2207.3781738       -123.37817383    
 2649-56-20      2111.0000000        2205.9130859       -94.913085938    
 2649-61-55      2081.0000000        2203.8200684       -122.82006836    
 2628-1-365      2129.0000000        2184.7177734       -55.717773438    
 2650-71-350     2071.0000000        2203.7900391       -132.79003906    
 2655-42-362     2084.0000000        2204.6787109       -120.67871094    
 2655-48-362     2083.0000000        2203.5224609       -120.52246094    
 2655-55-343     2093.0000000        2202.0310059       -109.03100586    
 2655-61-40      2080.0000000        2199.3925781       -119.39257812    
 2655-66-55      2057.0000000        2199.8950195       -142.89501953    
 2655-71-350     2061.0000000        2203.6645508       -142.66455078    
 2604-61-55      2078.0000000        2207.8867188       -129.88671875    
 2626-22-20      2106.0000000        2198.0307617       -92.030761719    
 2626-32-42      2110.0000000        2205.7729492       -95.772949219    
 2623-8-279      2109.0000000        2190.6237793       -81.623779297    
 2623-12-32      2110.0000000        2193.4445801       -83.444580078    
 2623-17-22      2109.0000000        2197.8698730       -88.869873047    
 2623-22-1       2104.0000000        2197.0334473       -93.033447266    
 2623-27-34      2113.0000000        2200.7370605       -87.737060547    
 2608-12-43      2113.0000000        2196.6447754       -83.644775391    
 2608-17-23      2111.0000000        2200.6765137       -89.676513672    
 2608-22-20      2105.0000000        2200.1689453       -95.168945312    
 2608-32-42      2110.0000000        2207.6218262       -97.621826172    
 2629-3-217      2124.0000000        2175.5756836       -51.575683594    
 2606-56-26      2123.0000000        2206.2878418       -83.287841797    
 2606-61-55      2120.0000000        2203.7170410       -83.717041016    
 2606-66-20      2114.0000000        2204.0893555       -90.089355469    
 2592-12-43      2137.0000000        2207.4807129       -70.480712891    
 2592-17-23      2133.0000000        2211.3703613       -78.370361328    
 2592-22-23      2125.0000000        2210.3613281       -85.361328125    
 2592-42-364     2123.0000000        2218.9975586       -95.997558594    
 2592-48-336     2115.0000000        2219.7932129       -104.79321289    
 2592-56-20      2137.0000000        2219.4714355       -82.471435547    
 2592-61-55      2113.0000000        2218.2888184       -105.28881836    
 2603-27-15      2121.0000000        2210.8581543       -89.858154297    
 2603-42-362     2104.0000000        2217.2592773       -113.25927734    
 2603-48-336     2101.0000000        2217.8544922       -116.85449219    
 2603-55-343     2114.0000000        2217.4670410       -103.46704102    
 2603-61-40      2099.0000000        2215.8500977       -116.85009766    
 2603-65-343     2064.0000000        2215.4729004       -151.47290039    
 2603-71-47      2078.0000000        2218.2424316       -140.24243164    
 2603-71-350     2074.0000000        2218.8696289       -144.86962891    
 2593-1-365      2142.0000000        2199.3232422       -57.323242188    
 2558-22-23      2120.0000000        2212.6816406       -92.681640625    
 2558-27-35      2127.0000000        2215.5151367       -88.515136719    
 2558-42-362     2113.0000000        2221.0097656       -108.00976562    
 2558-48-362     2109.0000000        2222.2817383       -113.28173828    
 2558-55-343     2119.0000000        2222.1811523       -103.18115234    
 2558-61-40      2106.0000000        2220.5773926       -114.57739258    
 2651-42-356     2169.0000000        2266.9650879       -97.965087891    
 2632-66-33      2145.0000000        2272.5747070       -127.57470703    
 2632-71-63      2134.0000000        2273.6369629       -139.63696289    
 2644-48-345     2173.0000000        2268.6523438       -95.652343750    
 2644-71-63      2134.0000000        2270.9230957       -136.92309570    
 2645-42-356     2172.0000000        2254.7397461       -82.739746094    
 2645-48-345     2158.0000000        2258.3549805       -100.35498047    
 2645-66-33      2144.0000000        2258.7258301       -114.72583008    
 2645-71-63      2131.0000000        2260.2697754       -129.26977539    
 2624-71-63      2130.0000000        2263.2014160       -133.20141602    
 2609-42-365     2143.0000000        2251.5375977       -108.53759766    
 2609-48-338     2138.0000000        2254.8901367       -116.89013672    
 2609-56-24      2128.0000000        2254.8200684       -126.82006836    
 2609-61-54      2121.0000000        2255.1979980       -134.19799805    
 2609-66-26      2103.0000000        2254.9440918       -151.94409180    
 2609-71-62      2095.0000000        2256.7849121       -161.78491211    
 2631-56-24      2101.0000000        2224.9755859       -123.97558594    
 2631-61-54      2085.0000000        2224.0808105       -139.08081055    
 2631-66-33      2058.0000000        2223.7873535       -165.78735352    
 2652-17-24      2121.0000000        2213.9626465       -92.962646484    
 2652-22-19      2113.0000000        2214.4973145       -101.49731445    
 2652-27-33      2114.0000000        2216.6694336       -102.66943359    
 2652-42-362     2099.0000000        2224.8527832       -125.85278320    
 2634-66-19      2059.0000000        2216.0356445       -157.03564453    
 2633-56-23      2109.0000000        2218.8627930       -109.86279297    
 2647-1-51       2132.0000000        2196.8964844       -64.896484375    
 2613-56-26      2121.0000000        2223.0212402       -102.02124023    
 2622-11-34      2132.0000000        2212.6186523       -80.618652344    
 2622-17-3       2120.0000000        2217.0163574       -97.016357422    
 2622-22-25      2119.0000000        2217.0427246       -98.042724609    
 2622-27-11      2120.0000000        2219.2109375       -99.210937500    
 2622-32-46      2113.0000000        2221.7084961       -108.70849609    
 2625-42-362     2107.0000000        2225.7905273       -118.79052734    
 2605-42-362     2114.0000000        2226.9541016       -112.95410156    
 2605-48-362     2110.0000000        2227.8764648       -117.87646484    
 2605-55-343     2118.0000000        2228.1506348       -110.15063477    
 2605-61-38      2104.0000000        2227.2626953       -123.26269531    
 2605-66-49      2073.0000000        2226.8923340       -153.89233398    
 2605-71-40      2077.0000000        2229.3007812       -152.30078125    
 2605-71-350     2076.0000000        2230.0034180       -154.00341797    
 2570-8-37       2157.0000000        2212.4865723       -55.486572266    
 2570-12-46      2145.0000000        2213.9204102       -68.920410156    
 2570-17-24      2139.0000000        2217.5061035       -78.506103516    
 2570-22-25      2125.0000000        2216.9326172       -91.932617188    
 2560-22-25      2127.0000000        2219.5434570       -92.543457031    
 2560-27-34      2126.0000000        2222.4218750       -96.421875000    
 2560-32-36      2126.0000000        2223.7331543       -97.733154297    
 2560-42-363     2116.0000000        2226.0092773       -110.00927734    
 2545-56-20      2135.0000000        2230.7521973       -95.752197266    
 2544-1-50       2178.0000000        2219.7329102       -41.732910156    
 2544-6-39       2167.0000000        2221.4145508       -54.414550781    
 2576-16-25      2150.0000000        2231.1362305       -81.136230469    
 2576-22-25      2142.0000000        2233.2192383       -91.219238281    
 2576-26-28      2140.0000000        2233.2478027       -93.247802734    
 2581-66-26      2077.0000000        2239.6059570       -162.60595703    
 2581-71-62      2076.0000000        2241.8618164       -165.86181641    
 2600-17-24      2133.0000000        2225.7868652       -92.786865234    
 2600-22-25      2127.0000000        2225.7319336       -98.731933594    
 2600-27-54      2129.0000000        2227.8632812       -98.863281250    
 2600-32-36      2120.0000000        2229.3642578       -109.36425781    
 2600-38-32      2112.0000000        2229.0544434       -117.05444336    
 2600-39-32      2112.0000000        2229.9509277       -117.95092773    
 2600-48-362     2111.0000000        2232.9628906       -121.96289062    
 2600-55-343     2114.0000000        2233.5705566       -119.57055664    
 2600-61-40      2102.0000000        2232.9726562       -130.97265625    
 2600-66-49      2085.0000000        2232.5183105       -147.51831055    
 2600-71-40      2075.0000000        2234.8198242       -159.81982422    
 2600-71-350     2092.0000000        2235.5666504       -143.56665039    
 2566-66-26      2067.0000000        2234.5742188       -167.57421875    
 2562-48-335     2109.0000000        2234.0734863       -125.07348633    
 2562-56-25      2124.0000000        2235.0651855       -111.06518555    
 2543-1-2        2177.0000000        2222.4072266       -45.407226562    
 2546-7-316      2175.0000000        2229.8649902       -54.864990234    
 2546-12-46      2162.0000000        2230.5793457       -68.579345703    
 2546-17-33      2154.0000000        2233.9003906       -79.900390625    
 2546-22-25      2145.0000000        2232.8217773       -87.821777344    
 2546-27-11      2162.0000000        2235.5341797       -73.534179688    
 2546-32-46      2144.0000000        2235.1154785       -91.115478516    
 2546-38-46      2137.0000000        2233.7360840       -96.736083984    
 2546-39-32      2139.0000000        2234.8134766       -95.813476562    
 2546-56-25      2163.0000000        2239.9204102       -76.920410156    
 2541-17-3       2147.0000000        2234.8244629       -87.824462891    
 2541-27-11      2163.0000000        2236.3693848       -73.369384766    
 2548-42-362     2126.0000000        2236.0266113       -110.02661133    
 2548-48-362     2120.0000000        2238.0852051       -118.08520508    
 2548-55-347     2124.0000000        2239.5649414       -115.56494141    
 2548-60-362     2111.0000000        2239.2021484       -128.20214844    
 2547-66-48      2087.0000000        2238.5693359       -151.56933594    
 2547-71-12      2084.0000000        2240.7841797       -156.78417969    
 2547-71-350     2082.0000000        2242.1713867       -160.17138672    
 2551-42-352     2126.0000000        2239.8298340       -113.82983398    
 2551-56-24      2127.0000000        2243.6179199       -116.61791992    
 2551-66-26      2085.0000000        2242.9572754       -157.95727539    
 2550-42-362     2130.0000000        2243.9921875       -113.99218750    
 2550-56-24      2122.0000000        2248.0187988       -126.01879883    
 2550-61-54      2107.0000000        2248.2958984       -141.29589844    
 2550-66-26      2085.0000000        2247.3981934       -162.39819336    
 2542-22-25      2156.0000000        2243.1442871       -87.144287109    
 2542-27-54      2165.0000000        2245.0656738       -80.065673828    
 2542-66-26      2089.0000000        2248.7478027       -159.74780273    
 2552-56-24      2120.0000000        2252.9028320       -132.90283203    
 2552-61-54      2109.0000000        2253.2126465       -144.21264648    
 2552-66-33      2092.0000000        2252.3588867       -160.35888672    
 2552-71-62      2083.0000000        2254.4035645       -171.40356445    
 2598-1-274      2210.0000000        2242.9985352       -32.998535156    
 2598-6-284      2205.0000000        2243.2841797       -38.284179688    
 2598-11-62      2197.0000000        2244.0429688       -47.042968750    
 2584-12-325     2205.0000000        2252.0754395       -47.075439453    
 2584-17-3       2190.0000000        2253.1594238       -63.159423828    
 2584-22-31      2181.0000000        2254.2028809       -73.202880859    
 2584-27-11      2173.0000000        2255.4995117       -82.499511719    
 2540-48-357     2153.0000000        2277.4880371       -124.48803711    
 2540-55-343     2142.0000000        2278.8278809       -136.82788086    
 2540-61-38      2135.0000000        2279.0585938       -144.05859375    
 2540-66-59      2125.0000000        2277.2380371       -152.23803711    
 2540-71-40      2122.0000000        2278.5893555       -156.58935547    
 2540-71-365     2122.0000000        2279.5061035       -157.50610352    
 2597-42-335     2153.0000000        2283.5361328       -130.53613281    
 2597-48-357     2151.0000000        2287.2221680       -136.22216797    
 2597-55-343     2141.0000000        2287.4663086       -146.46630859    
 2597-61-38      2136.0000000        2288.1452637       -152.14526367    
 2597-66-59      2129.0000000        2287.8352051       -158.83520508    
 2597-71-40      2121.0000000        2288.5844727       -167.58447266    
 2597-71-365     2119.0000000        2288.6367188       -169.63671875    
 2565-48-342     2155.0000000        2292.0532227       -137.05322266    
 2575-55-343     2203.0000000        2285.3310547       -82.331054688    
 2539-11-34      2244.0000000        2278.1958008       -34.195800781    
 2539-22-79      2212.0000000        2279.9270020       -67.927001953    
 2539-32-46      2200.0000000        2281.0185547       -81.018554688    
 2539-37-34      2187.0000000        2279.5346680       -92.534667969    
 2539-48-337     2174.0000000        2284.6394043       -110.63940430    
 2539-60-321     2158.0000000        2286.0295410       -128.02954102    
 2539-65-299     2144.0000000        2283.7807617       -139.78076172    
 2539-71-13      2144.0000000        2285.0571289       -141.05712891    
 2539-71-365     2143.0000000        2285.8403320       -142.84033203    
 2478-61-31      2169.0000000        2296.2404785       -127.24047852    
 2478-66-1       2150.0000000        2293.0986328       -143.09863281    
 2478-71-41      2148.0000000        2294.0405273       -146.04052734    
 2478-71-365     2152.0000000        2296.3364258       -144.33642578    
 2474-16-298     2273.0000000        2300.3012695       -27.301269531    
 2474-22-32      2270.0000000        2302.1416016       -32.141601562    
 2474-27-10      2263.0000000        2303.2785645       -40.278564453    
 2531-42-362     2157.0000000        2272.5080566       -115.50805664    
 2531-48-357     2153.0000000        2276.1328125       -123.13281250    
 2531-55-343     2141.0000000        2277.6340332       -136.63403320    
 2531-61-38      2134.0000000        2277.8608398       -143.86083984    
 2531-66-59      2123.0000000        2276.0532227       -153.05322266    
 2531-71-40      2121.0000000        2277.3972168       -156.39721680    
 2531-71-365     2121.0000000        2278.4721680       -157.47216797    
 2504-71-63      2155.0000000        2282.4929199       -127.49291992    
 2520-71-62      2132.0000000        2274.1643066       -142.16430664    
 2482-42-362     2162.0000000        2276.1250000       -114.12500000    
 2482-48-362     2150.0000000        2279.4824219       -129.48242188    
 2482-55-343     2143.0000000        2281.6054688       -138.60546875    
 2482-61-40      2132.0000000        2281.8623047       -149.86230469    
 2482-66-45      2121.0000000        2279.7138672       -158.71386719    
 2482-71-26      2126.0000000        2280.7238770       -154.72387695    
 2482-71-365     2127.0000000        2282.6669922       -155.66699219    
 2470-55-343     2152.0000000        2287.2690430       -135.26904297    
 2470-66-45      2131.0000000        2285.1320801       -154.13208008    
 2470-71-41      2133.0000000        2286.0556641       -153.05566406    
 2470-71-365     2136.0000000        2288.1376953       -152.13769531    
 2473-55-343     2154.0000000        2287.2690430       -133.26904297    
 2476-48-362     2155.0000000        2285.7934570       -130.79345703    
 2476-55-343     2151.0000000        2288.0078125       -137.00781250    
 2476-61-32      2143.0000000        2288.0581055       -145.05810547    
 2476-66-45      2142.0000000        2285.7958984       -143.79589844    
 2476-71-41      2132.0000000        2286.7031250       -154.70312500    
 2476-71-365     2135.0000000        2288.7893066       -153.78930664    
 2523-37-1       2161.0000000        2259.2868652       -98.286865234    
 2512-71-62      2101.0000000        2267.5854492       -166.58544922    
 2513-17-24      2182.0000000        2255.7185059       -73.718505859    
 2513-22-25      2173.0000000        2255.8127441       -82.812744141    
 2513-26-362     2168.0000000        2258.0583496       -90.058349609    
 2487-42-355     2146.0000000        2262.0356445       -116.03564453    
 2467-12-46      2194.0000000        2260.1677246       -66.167724609    
 2467-17-3       2183.0000000        2261.4694824       -78.469482422    
 2467-22-25      2173.0000000        2260.8896484       -87.889648438    
 2467-27-54      2176.0000000        2263.1452637       -87.145263672    
 2467-32-46      2155.0000000        2261.8627930       -106.86279297    
 2467-38-32      2148.0000000        2259.7312012       -111.73120117    
 2466-2-128      2235.0000000        2263.2492676       -28.249267578    
 2496-42-335     2150.0000000        2267.7521973       -117.75219727    
 2496-48-362     2143.0000000        2270.8281250       -127.82812500    
 2496-55-343     2132.0000000        2272.9277344       -140.92773438    
 2496-61-32      2123.0000000        2273.2219238       -150.22192383    
 2496-66-45      2109.0000000        2271.5446777       -162.54467773    
 2496-71-40      2113.0000000        2273.0678711       -160.06787109    
 2496-71-365     2113.0000000        2274.4228516       -161.42285156    
 2486-42-362     2150.0000000        2267.9624023       -117.96240234    
 2486-48-362     2143.0000000        2271.0075684       -128.00756836    
 2486-55-343     2133.0000000        2273.2729492       -140.27294922    
 2486-60-344     2117.0000000        2273.3984375       -156.39843750    
 2486-66-45      2110.0000000        2271.9453125       -161.94531250    
 2486-71-26      2111.0000000        2273.4223633       -162.42236328    
 2486-71-365     2115.0000000        2274.9138184       -159.91381836    
 2499-33-95      2163.0000000        2262.5249023       -99.524902344    
 2493-66-33      2109.0000000        2267.6811523       -158.68115234    
 2490-66-45      2105.0000000        2266.7280273       -161.72802734    
 2490-71-26      2099.0000000        2268.3901367       -169.39013672    
 2490-71-365     2101.0000000        2269.6962891       -168.69628906    
 2538-17-24      2177.0000000        2249.7480469       -72.748046875    
 2538-22-25      2168.0000000        2249.8579102       -81.857910156    
 2538-27-47      2170.0000000        2251.8029785       -81.802978516    
 2538-32-46      2157.0000000        2251.3928223       -94.392822266    
 2538-37-34      2146.0000000        2249.4321289       -103.43212891    
 2538-42-363     2138.0000000        2251.4184570       -113.41845703    
 2538-48-338     2134.0000000        2254.1018066       -120.10180664    
 2538-56-24      2127.0000000        2255.9353027       -128.93530273    
 2538-60-321     2116.0000000        2256.1896973       -140.18969727    
 2534-56-24      2132.0000000        2255.3764648       -123.37646484    
 2534-66-19      2100.0000000        2254.8151855       -154.81518555    
 2532-56-24      2125.0000000        2252.9577637       -127.95776367    
 2500-71-62      2105.0000000        2261.0781250       -156.07812500    
 2517-48-362     2129.0000000        2249.2778320       -120.27783203    
 2517-55-343     2127.0000000        2251.6750488       -124.67504883    
 2517-61-32      2115.0000000        2252.1303711       -137.13037109    
 2517-66-40      2094.0000000        2251.4345703       -157.43457031    
 2517-71-350     2088.0000000        2254.6806641       -166.68066406    
 2514-17-3       2169.0000000        2247.3906250       -78.390625000    
 2475-22-25      2153.0000000        2249.4467773       -96.446777344    
 2475-27-11      2143.0000000        2251.6706543       -108.67065430    
 2475-43-32      2135.0000000        2250.4787598       -115.47875977    
 2475-48-362     2133.0000000        2253.1115723       -120.11157227    
 2475-55-347     2130.0000000        2256.3872070       -126.38720703    
 2475-60-362     2121.0000000        2256.8820801       -135.88208008    
 2475-66-1       2097.0000000        2256.8862305       -159.88623047    
 2475-71-350     2090.0000000        2260.1010742       -170.10107422    
 2480-22-25      2178.0000000        2257.1015625       -79.101562500    
 2480-42-362     2140.0000000        2257.5874023       -117.58740234    
 2480-48-362     2136.0000000        2260.2482910       -124.24829102    
 2480-56-5       2140.0000000        2263.0024414       -123.00244141    
 2480-61-5       2134.0000000        2263.4096680       -129.40966797    
 2480-66-40      2106.0000000        2262.7033691       -156.70336914    
 2480-71-26      2096.0000000        2264.6140137       -168.61401367    
 2480-71-350     2098.0000000        2265.7927246       -167.79272461    
 2471-17-3       2179.0000000        2257.7207031       -78.720703125    
 2471-27-11      2163.0000000        2259.1540527       -96.154052734    
 2536-48-362     2124.0000000        2244.1850586       -120.18505859    
 2536-55-347     2125.0000000        2246.2392578       -121.23925781    
 2536-60-362     2113.0000000        2246.2519531       -133.25195312    
 2536-66-40      2091.0000000        2245.7844238       -154.78442383    
 2536-71-350     2085.0000000        2249.1586914       -164.15869141    
 2528-42-362     2129.0000000        2237.8305664       -108.83056641    
 2528-48-362     2123.0000000        2240.1269531       -117.12695312    
 2528-55-347     2126.0000000        2242.0510254       -116.05102539    
 2528-60-362     2113.0000000        2241.8715820       -128.87158203    
 2528-66-48      2088.0000000        2241.5388184       -153.53881836    
 2528-71-350     2082.0000000        2244.9609375       -162.96093750    
 2509-17-3       2148.0000000        2243.5390625       -95.539062500    
 2509-31-351     2138.0000000        2244.5314941       -106.53149414    
 2521-42-363     2132.0000000        2237.9772949       -105.97729492    
 2521-48-335     2126.0000000        2240.3745117       -114.37451172    
 2521-56-25      2133.0000000        2242.2614746       -109.26147461    
 2521-61-56      2117.0000000        2242.5947266       -125.59472656    
 2505-56-25      2133.0000000        2245.2795410       -112.27954102    
 2506-48-335     2129.0000000        2242.8020020       -113.80200195    
 2506-56-25      2133.0000000        2244.9853516       -111.98535156    
 2506-61-56      2082.0000000        2245.4821777       -163.48217773    
 2506-66-18      2092.0000000        2244.8872070       -152.88720703    
 2506-71-11      2089.0000000        2247.1823730       -158.18237305    
 2506-71-365     2089.0000000        2248.2250977       -159.22509766    
 2488-1-357      2201.0000000        2240.9509277       -39.950927734    
 2488-7-316      2188.0000000        2242.8425293       -54.842529297    
 2488-10-283     2174.0000000        2242.5930176       -68.593017578    
 2488-17-33      2162.0000000        2245.5087891       -83.508789062    
 2488-22-25      2152.0000000        2244.8767090       -92.876708984    
 2488-27-47      2156.0000000        2247.2619629       -91.261962891    
 2488-37-27      2136.0000000        2244.1884766       -108.18847656    
 2472-1-357      2208.0000000        2242.3886719       -34.388671875    
 2472-8-36       2189.0000000        2244.4291992       -55.429199219    
 2472-12-50      2174.0000000        2245.1223145       -71.122314453    
 2472-17-33      2162.0000000        2246.9370117       -84.937011719    
 2537-22-25      2136.0000000        2225.5004883       -89.500488281    
 2537-27-47      2145.0000000        2228.4316406       -83.431640625    
 2537-32-46      2140.0000000        2229.0073242       -89.007324219    
 2537-37-34      2138.0000000        2227.4421387       -89.442138672    
 2537-42-363     2125.0000000        2230.2602539       -105.26025391    
 2537-56-20      2135.0000000        2233.2509766       -98.250976562    
 2497-42-363     2131.0000000        2233.4443359       -102.44433594    
 2497-48-337     2126.0000000        2235.9812012       -109.98120117    
 2497-56-20      2135.0000000        2236.8789062       -101.87890625    
 2434-48-362     2131.0000000        2247.7080078       -116.70800781    
 2434-55-346     2132.0000000        2250.6184082       -118.61840820    
 2434-61-6       2124.0000000        2250.8759766       -126.87597656    
 2434-66-48      2095.0000000        2251.5686035       -156.56860352    
 2434-71-12      2089.0000000        2254.1271973       -165.12719727    
 2434-71-350     2088.0000000        2254.5678711       -166.56787109    
 2355-42-362     2138.0000000        2248.9826660       -110.98266602    
 2355-48-362     2135.0000000        2252.0510254       -117.05102539    
 2355-55-343     2134.0000000        2254.6425781       -120.64257812    
 2355-61-40      2122.0000000        2255.0332031       -133.03320312    
 2355-71-47      2094.0000000        2259.3923340       -165.39233398    
 2355-71-350     2092.0000000        2259.2939453       -167.29394531    
 2428-56-38      2135.0000000        2258.9990234       -123.99902344    
 2428-66-48      2102.0000000        2260.4450684       -158.44506836    
 2428-71-5       2091.0000000        2262.6735840       -171.67358398    
 2428-71-365     2091.0000000        2263.5798340       -172.57983398    
 2433-66-48      2099.0000000        2256.8417969       -157.84179688    
 2433-71-5       2091.0000000        2259.1896973       -168.18969727    
 2433-71-365     2087.0000000        2259.9758301       -172.97583008    
 2403-48-362     2122.0000000        2253.0388184       -131.03881836    
 2403-55-343     2126.0000000        2257.0541992       -131.05419922    
 2403-66-59      2098.0000000        2258.7343750       -160.73437500    
 2403-71-47      2091.0000000        2261.1494141       -170.14941406    
 2403-71-365     2090.0000000        2261.7980957       -171.79809570    
 2410-66-59      2100.0000000        2260.3757324       -160.37573242    
 2410-71-47      2091.0000000        2262.7656250       -171.76562500    
 2410-71-365     2090.0000000        2263.4316406       -173.43164062    
 2462-8-38       2184.0000000        2239.8356934       -55.835693359    
 2464-12-50      2168.0000000        2240.2951660       -72.295166016    
 2464-17-23      2159.0000000        2242.4797363       -83.479736328    
 2464-22-23      2149.0000000        2241.4482422       -92.448242188    
 2459-42-362     2136.0000000        2244.6918945       -108.69189453    
 2459-48-362     2131.0000000        2247.3815918       -116.38159180    
 2409-66-48      2103.0000000        2261.3308105       -158.33081055    
 2409-71-12      2092.0000000        2263.6745605       -171.67456055    
 2357-12-50      2196.0000000        2257.4011230       -61.401123047    
 2357-17-35      2180.0000000        2258.5700684       -78.570068359    
 2357-22-23      2170.0000000        2257.6044922       -87.604492188    
 2357-27-34      2169.0000000        2259.8454590       -90.845458984    
 2357-37-34      2157.0000000        2256.3295898       -99.329589844    
 2357-66-48      2119.0000000        2270.7065430       -151.70654297    
 2357-71-12      2085.0000000        2273.1081543       -188.10815430    
 2357-71-365     2093.0000000        2273.7041016       -180.70410156    
 2336-61-21      2132.0000000        2269.1354980       -137.13549805    
 2363-56-38      2144.0000000        2267.1643066       -123.16430664    
 2363-66-48      2121.0000000        2270.8530273       -149.85302734    
 2363-71-5       2102.0000000        2273.1252441       -171.12524414    
 2363-71-365     2103.0000000        2273.8623047       -170.86230469    
 2460-22-25      2164.0000000        2252.8967285       -88.896728516    
 2460-48-362     2136.0000000        2256.3273926       -120.32739258    
 2460-55-343     2134.0000000        2259.9262695       -125.92626953    
 2460-61-20      2124.0000000        2260.7116699       -136.71166992    
 2460-66-49      2104.0000000        2260.6774902       -156.67749023    
 2460-71-41      2096.0000000        2262.8815918       -166.88159180    
 2460-71-350     2094.0000000        2263.7993164       -169.79931641    
 2399-56-38      2138.0000000        2265.1650391       -127.16503906    
 2399-66-48      2114.0000000        2267.6281738       -153.62817383    
 2399-71-5       2100.0000000        2269.7836914       -169.78369141    
 2399-71-365     2099.0000000        2270.7014160       -171.70141602    
 2373-56-6       2140.0000000        2267.0437012       -127.04370117    
 2373-61-6       2129.0000000        2268.7238770       -139.72387695    
 2373-66-48      2121.0000000        2269.9941406       -148.99414062    
 2373-71-12      2104.0000000        2272.1535645       -168.15356445    
 2373-71-365     2104.0000000        2273.0310059       -169.03100586    
 2356-56-38      2142.0000000        2271.6118164       -129.61181641    
 2356-66-42      2133.0000000        2274.5800781       -141.58007812    
 2356-71-5       2113.0000000        2276.7011719       -163.70117188    
 2356-71-365     2115.0000000        2277.6540527       -162.65405273    
 2389-8-37       2225.0000000        2263.0104980       -38.010498047    
 2389-12-38      2209.0000000        2263.8183594       -54.818359375    
 2388-17-34      2187.0000000        2264.7905273       -77.790527344    
 2388-22-25      2175.0000000        2264.0017090       -89.001708984    
 2388-32-46      2167.0000000        2264.9047852       -97.904785156    
 2388-38-32      2160.0000000        2262.3674316       -102.36743164    
 2343-12-50      2205.0000000        2264.7971191       -59.797119141    
 2343-17-35      2190.0000000        2265.5358887       -75.535888672    
 2343-22-24      2178.0000000        2264.6506348       -86.650634766    
 2343-61-21      2153.0000000        2275.3525391       -122.35253906    
 2427-42-363     2149.0000000        2270.8947754       -121.89477539    
 2427-48-337     2143.0000000        2273.9565430       -130.95654297    
 2427-61-20      2124.0000000        2276.7033691       -152.70336914    
 2427-66-31      2109.0000000        2275.2954102       -166.29541016    
 2418-10-262     2219.0000000        2269.4580078       -50.458007812    
 2408-10-262     2234.0000000        2275.1337891       -41.133789062    
 2431-7-316      2228.0000000        2265.4101562       -37.410156250    
 2431-12-38      2209.0000000        2266.2922363       -57.292236328    
 2446-22-25      2182.0000000        2267.0327148       -85.032714844    
 2447-7-32       2226.0000000        2258.8559570       -32.855957031    
 2432-7-316      2220.0000000        2262.9179688       -42.917968750    
 2432-12-33      2203.0000000        2263.9379883       -60.937988281    
 2432-22-1       2179.0000000        2264.3713379       -85.371337891    
 2432-42-363     2152.0000000        2264.3125000       -112.31250000    
 2405-16-293     2215.0000000        2271.0070801       -56.007080078    
 2383-12-50      2224.0000000        2277.5585938       -53.558593750    
 2383-17-24      2210.0000000        2278.5871582       -68.587158203    
 2383-22-24      2199.0000000        2277.9541016       -78.954101562    
 2383-27-11      2194.0000000        2279.6867676       -85.686767578    
 2383-32-48      2181.0000000        2278.3251953       -97.325195312    
 2387-61-20      2131.0000000        2283.4973145       -152.49731445    
 2387-66-28      2117.0000000        2282.1835938       -165.18359375    
 2387-71-54      2115.0000000        2283.9262695       -168.92626953    
 2372-27-47      2181.0000000        2275.7180176       -94.718017578    
 2372-42-363     2156.0000000        2273.5090332       -117.50903320    
 2372-56-19      2142.0000000        2279.6276855       -137.62768555    
 2372-71-54      2109.0000000        2280.7873535       -171.78735352    
 2332-61-20      2135.0000000        2284.6884766       -149.68847656    
 2332-66-28      2141.0000000        2283.5351562       -142.53515625    
 2332-71-54      2112.0000000        2285.3801270       -173.38012695    
 2437-22-24      2213.0000000        2289.2331543       -76.233154297    
 2437-27-15      2208.0000000        2291.0561523       -83.056152344    
 2437-32-48      2196.0000000        2288.4086914       -92.408691406    
 2438-12-306     2233.0000000        2281.4653320       -48.465332031    
 2438-16-298     2223.0000000        2282.3762207       -59.376220703    
 2430-42-363     2158.0000000        2280.9523926       -122.95239258    
 2430-48-337     2145.0000000        2284.3459473       -139.34594727    
 2430-56-19      2141.0000000        2286.6992188       -145.69921875    
 2430-66-28      2118.0000000        2284.3708496       -166.37084961    
 2430-71-54      2126.0000000        2285.7048340       -159.70483398    
 2444-10-264     2239.0000000        2283.4614258       -44.461425781    
 2424-10-265     2235.0000000        2284.3276367       -49.327636719    
 2425-10-265     2237.0000000        2286.6855469       -49.685546875    
 2414-10-263     2232.0000000        2287.8198242       -55.819824219    
 2458-42-362     2153.0000000        2275.0114746       -122.01147461    
 2458-48-362     2143.0000000        2278.2307129       -135.23071289    
 2458-56-32      2135.0000000        2280.7561035       -145.75610352    
 2458-61-20      2125.0000000        2280.6186523       -155.61865234    
 2458-66-49      2112.0000000        2278.7453613       -166.74536133    
 2458-71-41      2118.0000000        2280.1528320       -162.15283203    
 2458-71-365     2118.0000000        2281.7521973       -163.75219727    
 2439-42-363     2156.0000000        2277.0417480       -121.04174805    
 2439-48-337     2148.0000000        2280.3159180       -132.31591797    
 2439-56-19      2143.0000000        2282.6992188       -139.69921875    
 2439-61-20      2130.0000000        2282.5529785       -152.55297852    
 2439-66-31      2114.0000000        2280.7026367       -166.70263672    
 2415-1-52       2259.0000000        2282.1037598       -23.103759766    
 2407-27-47      2201.0000000        2285.8427734       -84.842773438    
 2407-61-20      2133.0000000        2288.4985352       -155.49853516    
 2407-66-28      2118.0000000        2286.5532227       -168.55322266    
 2407-71-54      2127.0000000        2287.8696289       -160.86962891    
 2402-10-263     2229.0000000        2277.8037109       -48.803710938    
 2394-56-26      2149.0000000        2294.6406250       -145.64062500    
 2394-61-61      2142.0000000        2294.0192871       -152.01928711    
 2394-66-25      2129.0000000        2291.5871582       -162.58715820    
 2386-60-341     2130.0000000        2291.3076172       -161.30761719    
 2386-66-49      2121.0000000        2289.3933105       -168.39331055    
 2386-71-40      2124.0000000        2290.6281738       -166.62817383    
 2386-71-365     2125.0000000        2292.0683594       -167.06835938    
 2453-27-47      2278.0000000        2307.2961426       -29.296142578    
 2413-2-121      2301.0000000        2303.2778320       -2.2778320312    
 2412-12-304     2252.0000000        2305.6525879       -53.652587891    
 2412-16-298     2240.0000000        2306.0270996       -66.027099609    
 2412-16-364     2242.0000000        2306.1445312       -64.144531250    
 2398-1-357      2279.0000000        2305.9216309       -26.921630859    
 2398-7-2        2288.0000000        2305.1484375       -17.148437500    
 2395-42-363     2217.0000000        2308.0898438       -91.089843750    
 2395-48-337     2208.0000000        2312.8747559       -104.87475586    
 2385-42-363     2211.0000000        2307.3657227       -96.365722656    
 2385-48-362     2200.0000000        2312.0056152       -112.00561523    
 2385-55-346     2189.0000000        2314.6896973       -125.68969727    
 2385-61-31      2180.0000000        2312.8918457       -132.89184570    
 2385-66-1       2161.0000000        2309.0961914       -148.09619141    
 2385-71-41      2161.0000000        2309.7849121       -148.78491211    
 2385-71-365     2167.0000000        2312.4465332       -145.44653320    
 2282-12-46      2278.0000000        2314.2922363       -36.292236328    
 2282-17-24      2263.0000000        2316.0559082       -53.055908203    
 2282-22-24      2258.0000000        2317.7111816       -59.711181641    
 2282-32-48      2238.0000000        2316.2136230       -78.213623047    
 2326-26-293     2237.0000000        2309.5751953       -72.575195312    
 2326-42-363     2208.0000000        2307.1452637       -99.145263672    
 2326-48-362     2194.0000000        2311.6845703       -117.68457031    
 2326-56-33      2168.0000000        2314.3286133       -146.32861328    
 2326-61-41      2167.0000000        2312.3510742       -145.35107422    
 2326-66-45      2152.0000000        2309.2683105       -157.26831055    
 2326-71-41      2156.0000000        2310.0144043       -154.01440430    
 2326-71-365     2160.0000000        2311.6682129       -151.66821289    
 2260-56-26      2172.0000000        2317.2653809       -145.26538086    
 2260-61-61      2161.0000000        2314.9768066       -153.97680664    
 2260-66-25      2147.0000000        2311.6914062       -164.69140625    
 2260-71-61      2152.0000000        2312.6579590       -160.65795898    
 2202-71-61      2133.0000000        2308.0385742       -175.03857422    
 2127-42-335     2192.0000000        2310.0854492       -118.08544922    
 2283-7-311      2250.0000000        2289.6008301       -39.600830078    
 2283-17-24      2219.0000000        2291.0297852       -72.029785156    
 2283-22-24      2212.0000000        2290.7194824       -78.719482422    
 2283-27-47      2202.0000000        2292.2790527       -90.279052734    
 2283-32-48      2187.0000000        2290.9062500       -103.90625000    
 2283-35-15      2180.0000000        2290.0947266       -110.09472656    
 2291-37-32      2177.0000000        2288.5166016       -111.51660156    
 2291-48-338     2156.0000000        2293.3571777       -137.35717773    
 2291-60-321     2133.0000000        2295.0227051       -162.02270508    
 2291-71-13      2129.0000000        2294.5783691       -165.57836914    
 2291-71-365     2130.0000000        2295.6276855       -165.62768555    
 2304-7-311      2243.0000000        2283.6989746       -40.698974609    
 2304-12-38      2229.0000000        2284.1540527       -55.154052734    
 2304-17-3       2211.0000000        2285.2478027       -74.247802734    
 2304-22-24      2202.0000000        2284.5803223       -82.580322266    
 2304-27-11      2197.0000000        2286.1442871       -89.144287109    
 2237-7-79       2255.0000000        2291.5422363       -36.542236328    
 2237-12-38      2241.0000000        2293.1279297       -52.127929688    
 2237-17-24      2224.0000000        2294.1105957       -70.110595703    
 2237-22-24      2217.0000000        2293.8046875       -76.804687500    
 2237-27-16      2200.0000000        2295.3227539       -95.322753906    
 2218-56-34      2138.0000000        2297.4560547       -159.45605469    
 2218-66-59      2128.0000000        2295.0195312       -167.01953125    
 2218-71-54      2128.0000000        2296.6794434       -168.67944336    
 2218-71-365     2128.0000000        2297.5217285       -169.52172852    
 2212-26-349     2217.0000000        2297.3369141       -80.336914062    
 2212-42-362     2184.0000000        2295.4621582       -111.46215820    
 2212-61-20      2151.0000000        2300.1145020       -149.11450195    
 2212-66-59      2145.0000000        2298.3339844       -153.33398438    
 2212-71-54      2148.0000000        2299.9394531       -151.93945312    
 2212-71-365     2148.0000000        2300.7236328       -152.72363281    
 2213-56-34      2137.0000000        2299.7763672       -162.77636719    
 2213-66-59      2132.0000000        2297.0144043       -165.01440430    
 2213-71-54      2133.0000000        2298.6210938       -165.62109375    
 2213-71-365     2133.0000000        2299.4472656       -166.44726562    
 2177-42-363     2166.0000000        2290.3190918       -124.31909180    
 2177-48-337     2168.0000000        2293.1213379       -125.12133789    
 2177-56-19      2145.0000000        2295.6877441       -150.68774414    
 2177-66-31      2130.0000000        2293.6164551       -163.61645508    
 2177-71-54      2106.0000000        2295.4736328       -189.47363281    
 2175-6-283      2262.0000000        2295.1503906       -33.150390625    
 2175-12-51      2240.0000000        2296.9479980       -56.947998047    
 2175-17-24      2228.0000000        2297.9042969       -69.904296875    
 2175-22-24      2220.0000000        2297.3457031       -77.345703125    
 2175-27-47      2202.0000000        2299.0078125       -97.007812500    
 2176-56-34      2142.0000000        2298.8974609       -156.89746094    
 2176-66-59      2132.0000000        2296.4460449       -164.44604492    
 2176-71-54      2133.0000000        2298.1289062       -165.12890625    
 2176-71-365     2133.0000000        2298.9304199       -165.93041992    
 2154-56-19      2146.0000000        2302.0913086       -156.09130859    
 2154-61-20      2142.0000000        2300.9550781       -158.95507812    
 2154-66-28      2135.0000000        2299.3181152       -164.31811523    
 2154-71-54      2139.0000000        2301.0270996       -162.02709961    
 2232-56-26      2147.0000000        2306.6250000       -159.62500000    
 2232-61-20      2140.0000000        2305.0178223       -165.01782227    
 2232-66-25      2134.0000000        2302.6896973       -168.68969727    
 2232-71-53      2137.0000000        2304.1853027       -167.18530273    
 2211-56-26      2149.0000000        2307.4777832       -158.47778320    
 2211-61-20      2141.0000000        2305.8977051       -164.89770508    
 2211-66-25      2137.0000000        2303.6877441       -166.68774414    
 2211-71-53      2141.0000000        2305.2041016       -164.20410156    
 2233-56-26      2143.0000000        2302.2255859       -159.22558594    
 2233-61-20      2139.0000000        2300.9287109       -161.92871094    
 2170-56-26      2146.0000000        2304.3405762       -158.34057617    
 2170-66-25      2135.0000000        2301.0297852       -166.02978516    
 2131-12-290     2246.0000000        2304.4206543       -58.420654297    
 2131-56-26      2155.0000000        2310.4350586       -155.43505859    
 2131-61-61      2150.0000000        2308.7954102       -158.79541016    
 2131-66-25      2143.0000000        2306.4873047       -163.48730469    
 2131-71-53      2148.0000000        2308.0185547       -160.01855469    
 2137-42-363     2174.0000000        2285.7932129       -111.79321289    
 2137-48-338     2172.0000000        2288.3547363       -116.35473633    
 2137-56-24      2171.0000000        2291.4272461       -120.42724609    
 2137-66-19      2140.0000000        2290.2495117       -150.24951172    
 2137-71-60      2138.0000000        2292.4831543       -154.48315430    
 2289-11-38      2218.0000000        2269.1503906       -51.150390625    
 2289-17-33      2195.0000000        2270.4978027       -75.497802734    
 2289-22-24      2184.0000000        2269.5939941       -85.593994141    
 2289-32-32      2180.0000000        2270.5192871       -90.519287109    
 2241-10-33      2227.0000000        2272.4719238       -45.471923828    
 2241-17-33      2199.0000000        2274.3742676       -75.374267578    
 2241-22-24      2189.0000000        2273.3974609       -84.397460938    
 2241-42-363     2164.0000000        2273.4409180       -109.44091797    
 2241-48-334     2158.0000000        2275.8286133       -117.82861328    
 2241-56-26      2149.0000000        2280.5354004       -131.53540039    
 2241-61-21      2141.0000000        2281.7084961       -140.70849609    
 2236-1-357      2246.0000000        2273.6867676       -27.686767578    
 2236-6-341      2242.0000000        2273.6086426       -31.608642578    
 2236-12-59      2219.0000000        2274.8996582       -55.899658203    
 2236-16-313     2206.0000000        2275.6831055       -69.683105469    
 2236-22-32      2193.0000000        2274.5336914       -81.533691406    
 2327-71-365     2124.0000000        2279.3229980       -155.32299805    
 2306-71-54      2114.0000000        2278.7170410       -164.71704102    
 2306-71-365     2108.0000000        2279.4912109       -171.49121094    
 2264-56-38      2145.0000000        2275.7600098       -130.76000977    
 2264-66-48      2132.0000000        2278.6428223       -146.64282227    
 2264-71-5       2111.0000000        2280.7165527       -169.71655273    
 2264-71-365     2111.0000000        2281.7192383       -170.71923828    
 2307-71-54      2110.0000000        2280.7746582       -170.77465820    
 2307-71-365     2102.0000000        2281.5168457       -179.51684570    
 2292-56-38      2153.0000000        2271.5390625       -118.53906250    
 2292-66-42      2134.0000000        2275.4299316       -141.42993164    
 2293-56-38      2152.0000000        2271.4306641       -119.43066406    
 2293-66-48      2131.0000000        2275.3493652       -144.34936523    
 2293-71-12      2097.0000000        2277.6257324       -180.62573242    
 2293-71-365     2111.0000000        2278.3674316       -167.36743164    
 2272-55-346     2143.0000000        2273.2844238       -130.28442383    
 2272-71-54      2109.0000000        2282.2863770       -173.28637695    
 2272-71-365     2100.0000000        2283.0234375       -183.02343750    
 2268-66-3       2122.0000000        2276.4497070       -154.44970703    
 2268-71-365     2107.0000000        2279.8295898       -172.82958984    
 2242-56-38      2144.0000000        2275.3444824       -131.34448242    
 2242-66-48      2122.0000000        2279.1325684       -157.13256836    
 2242-71-365     2100.0000000        2282.1821289       -182.18212891    
 2257-56-38      2149.0000000        2274.9482422       -125.94824219    
 2257-66-48      2135.0000000        2278.5458984       -143.54589844    
 2258-56-38      2152.0000000        2274.8459473       -122.84594727    
 2258-66-48      2138.0000000        2278.5026855       -140.50268555    
 2187-42-362     2156.0000000        2270.4465332       -114.44653320    
 2187-48-336     2152.0000000        2272.8811035       -120.88110352    
 2187-56-5       2143.0000000        2278.4472656       -135.44726562    
 2187-61-6       2137.0000000        2279.4746094       -142.47460938    
 2187-66-48      2121.0000000        2281.1442871       -160.14428711    
 2187-71-54      2107.0000000        2283.6398926       -176.63989258    
 2187-71-349     2100.0000000        2284.2009277       -184.20092773    
 2234-56-38      2152.0000000        2282.6074219       -130.60742188    
 2234-66-48      2126.0000000        2283.4819336       -157.48193359    
 2226-66-48      2127.0000000        2282.8210449       -155.82104492    
 2155-56-38      2153.0000000        2283.2753906       -130.27539062    
 2155-66-48      2127.0000000        2284.5192871       -157.51928711    
 2333-56-38      2142.0000000        2269.0937500       -127.09375000    
 2333-66-48      2117.0000000        2272.9860840       -155.98608398    
 2308-56-38      2143.0000000        2270.0603027       -127.06030273    
 2308-66-48      2123.0000000        2273.9250488       -150.92504883    
 2308-71-21      2103.0000000        2276.2619629       -173.26196289    
 2308-71-365     2104.0000000        2276.9353027       -172.93530273    
 2329-56-38      2145.0000000        2269.0083008       -124.00830078    
 2329-66-48      2123.0000000        2272.8574219       -149.85742188    
 2329-71-12      2098.0000000        2275.1945801       -177.19458008    
 2329-71-365     2104.0000000        2275.8625488       -171.86254883    
 2319-66-48      2133.0000000        2273.9892578       -140.98925781    
 2320-56-38      2146.0000000        2269.9663086       -123.96630859    
 2320-66-48      2131.0000000        2273.8671875       -142.86718750    
 2320-71-12      2108.0000000        2276.1530762       -168.15307617    
 2320-71-365     2112.0000000        2276.8764648       -164.87646484    
 2299-55-343     2141.0000000        2270.0122070       -129.01220703    
 2299-71-54      2096.0000000        2277.1245117       -181.12451172    
 2299-71-365     2096.0000000        2277.7172852       -181.71728516    
 2274-56-38      2145.0000000        2271.7927246       -126.79272461    
 2274-71-54      2106.0000000        2279.7106934       -173.71069336    
 2274-71-365     2098.0000000        2280.3415527       -182.34155273    
 2294-56-38      2148.0000000        2270.8540039       -122.85400391    
 2294-66-48      2126.0000000        2274.7219238       -148.72192383    
 2294-71-12      2100.0000000        2277.0478516       -177.04785156    
 2294-71-365     2105.0000000        2277.7363281       -172.73632812    
 2273-56-38      2146.0000000        2271.6628418       -125.66284180    
 2273-66-48      2124.0000000        2275.5310059       -151.53100586    
 2273-71-21      2104.0000000        2277.8747559       -173.87475586    
 2273-71-365     2103.0000000        2278.5500488       -175.55004883    
 2284-66-42      2108.0000000        2272.6528320       -164.65283203    
 2167-1-365      2231.0000000        2269.7385254       -38.738525391    
 2167-7-310      2218.0000000        2270.2326660       -52.232666016    
 2167-11-38      2206.0000000        2269.8908691       -63.890869141    
 2183-12-50      2200.0000000        2270.0568848       -70.056884766    
 2183-17-34      2181.0000000        2270.7949219       -89.794921875    
 2183-22-23      2171.0000000        2269.7690430       -98.769042969    
 2183-32-47      2167.0000000        2271.1088867       -104.10888672    
 2183-38-32      2162.0000000        2268.2414551       -106.24145508    
 2168-42-364     2155.0000000        2271.0974121       -116.09741211    
 2243-42-364     2133.0000000        2258.2917480       -125.29174805    
 2243-56-25      2126.0000000        2265.2741699       -139.27416992    
 2243-66-19      2074.0000000        2268.1533203       -194.15332031    
 2108-66-48      2141.0000000        2287.7521973       -146.75219727    
 2109-12-50      2233.0000000        2278.7170410       -45.717041016    
 2109-17-34      2214.0000000        2279.3881836       -65.388183594    
 2109-22-23      2204.0000000        2278.2578125       -74.257812500    
 2109-42-362     2172.0000000        2278.5100098       -106.51000977    
 2109-48-363     2170.0000000        2280.7165527       -110.71655273    
 2109-55-346     2156.0000000        2285.3022461       -129.30224609    
 2109-60-323     2151.0000000        2285.1247559       -134.12475586    
 2109-66-48      2144.0000000        2285.9877930       -141.98779297    
 2109-71-12      2126.0000000        2288.1457520       -162.14575195    
 2109-71-349     2126.0000000        2289.0976562       -163.09765625    
 1991-7-25       2262.0000000        2291.8415527       -29.841552734    
 1991-12-50      2243.0000000        2292.6569824       -49.656982422    
 1991-17-34      2224.0000000        2293.5832520       -69.583251953    
 1991-22-23      2214.0000000        2292.0668945       -78.066894531    
 1991-27-11      2207.0000000        2294.2519531       -87.251953125    
 1991-38-32      2199.0000000        2290.5898438       -91.589843750    
 1991-42-365     2178.0000000        2292.5666504       -114.56665039    
 1991-48-337     2181.0000000        2294.8315430       -113.83154297    
 1991-56-25      2168.0000000        2297.5344238       -129.53442383    
 1991-60-323     2162.0000000        2296.0000000       -134.00000000    
 2038-12-51      2244.0000000        2294.6079102       -50.607910156    
 2038-17-24      2232.0000000        2295.5649414       -63.564941406    
 2038-22-24      2223.0000000        2294.3715820       -71.371582031    
 2038-56-19      2217.0000000        2299.3608398       -82.360839844    
 2122-61-21      2149.0000000        2289.4094238       -140.40942383    
 2075-56-38      2165.0000000        2291.0524902       -126.05249023    
 2039-61-21      2161.0000000        2296.4597168       -135.45971680    
 2021-61-20      2161.0000000        2297.8442383       -136.84423828    
 2020-61-21      2164.0000000        2297.1989746       -133.19897461    
 1987-66-48      2158.0000000        2297.8701172       -139.87011719    
 1958-42-362     2187.0000000        2298.3779297       -111.37792969    
 1958-48-362     2189.0000000        2300.4716797       -111.47167969    
 1958-55-346     2175.0000000        2302.8251953       -127.82519531    
 1958-61-20      2168.0000000        2301.1552734       -133.15527344    
 1958-66-1       2158.0000000        2299.8229980       -141.82299805    
 1958-71-47      2154.0000000        2301.9147949       -147.91479492    
 1958-71-349     2153.0000000        2302.8513184       -149.85131836    
 1952-12-301     2256.0000000        2298.8652344       -42.865234375    
 1952-17-4       2237.0000000        2301.2404785       -64.240478516    
 1952-22-32      2234.0000000        2299.2102051       -65.210205078    
 1952-27-11      2225.0000000        2301.4348145       -76.434814453    
 2107-56-26      2157.0000000        2308.5480957       -151.54809570    
 2107-61-20      2145.0000000        2306.9885254       -161.98852539    
 2107-71-53      2148.0000000        2306.6538086       -158.65380859    
 2079-7-152      2264.0000000        2302.6713867       -38.671386719    
 2079-61-20      2145.0000000        2308.7009277       -163.70092773    
 2057-42-362     2188.0000000        2307.0554199       -119.05541992    
 2057-48-362     2181.0000000        2310.6572266       -129.65722656    
 2057-55-346     2150.0000000        2312.5502930       -162.55029297    
 2057-61-20      2156.0000000        2310.7399902       -154.73999023    
 2057-65-354     2147.0000000        2308.7014160       -161.70141602    
 2057-71-56      2152.0000000        2310.2951660       -158.29516602    
 2057-71-365     2152.0000000        2310.8532715       -158.85327148    
 2161-6-283      2266.0000000        2294.6142578       -28.614257812    
 2161-10-283     2246.0000000        2295.7604980       -49.760498047    
 2161-17-24      2232.0000000        2297.3725586       -65.372558594    
 2161-22-24      2224.0000000        2296.7971191       -72.797119141    
 2161-27-47      2212.0000000        2298.4672852       -86.467285156    
 2161-32-48      2199.0000000        2297.3154297       -98.315429688    
 2161-38-32      2192.0000000        2294.6708984       -102.67089844    
 2094-61-20      2148.0000000        2303.9311523       -155.93115234    
 2094-66-28      2138.0000000        2302.2265625       -164.22656250    
 2094-71-54      2143.0000000        2303.9357910       -160.93579102    
 2059-7-311      2263.0000000        2299.4746094       -36.474609375    
 2059-12-51      2255.0000000        2300.0754395       -45.075439453    
 2059-17-4       2229.0000000        2301.1276855       -72.127685547    
 2059-22-24      2220.0000000        2299.8850098       -79.885009766    
 2059-27-47      2219.0000000        2301.7607422       -82.760742188    
 2059-61-21      2174.0000000        2303.6730957       -129.67309570    
 1989-42-365     2190.0000000        2303.4345703       -113.43457031    
 1989-56-17      2179.0000000        2306.8308105       -127.83081055    
 1989-61-20      2170.0000000        2305.5603027       -135.56030273    
 1968-42-365     2192.0000000        2306.1042480       -114.10424805    
 1968-56-17      2180.0000000        2310.5393066       -130.53930664    
 1968-61-20      2173.0000000        2308.8859863       -135.88598633    
 1937-56-17      2189.0000000        2312.6552734       -123.65527344    
 1937-61-20      2176.0000000        2310.9265137       -134.92651367    
 1937-66-27      2171.0000000        2309.1247559       -138.12475586    
 2007-61-21      2165.0000000        2315.0629883       -150.06298828    
 2007-66-25      2159.0000000        2313.1289062       -154.12890625    
 1981-61-21      2168.0000000        2316.1101074       -148.11010742    
 2037-66-32      2145.0000000        2327.8925781       -182.89257812    
 2106-26-349     2227.0000000        2311.5048828       -84.504882812    
 2106-32-32      2213.0000000        2310.7636719       -97.763671875    
 2106-42-362     2192.0000000        2309.9641113       -117.96411133    
 2106-48-362     2179.0000000        2313.9523926       -134.95239258    
 2106-56-34      2160.0000000        2316.1320801       -156.13208008    
 2106-61-41      2151.0000000        2314.2272949       -163.22729492    
 2106-66-54      2145.0000000        2311.9394531       -166.93945312    
 2106-71-41      2144.0000000        2313.2900391       -169.29003906    
 2106-71-365     2148.0000000        2313.8947754       -165.89477539    
 1951-12-51      2290.0000000        2330.8110352       -40.811035156    
 1951-17-39      2273.0000000        2331.9140625       -58.914062500    
 1951-22-28      2266.0000000        2332.0964355       -66.096435547    
 1951-38-354     2221.0000000        2331.4335938       -110.43359375    
 1951-42-363     2215.0000000        2332.6691895       -117.66918945    
 1951-48-362     2201.0000000        2337.2626953       -136.26269531    
 1951-55-346     2181.0000000        2338.6062012       -157.60620117    
 1951-61-41      2171.0000000        2335.6401367       -164.64013672    
 1951-66-49      2160.0000000        2333.1647949       -173.16479492    
 1951-71-56      2163.0000000        2334.2451172       -171.24511719    
 1951-71-365     2165.0000000        2334.1904297       -169.19042969    
 2494-1-365      2306.0000000        2325.5017090       -19.501708984    
 2489-22-66      2270.0000000        2306.2729492       -36.272949219    
 2489-27-87      2267.0000000        2307.3850098       -40.385009766    
 2489-32-1       2263.0000000        2305.4692383       -42.469238281    
 2489-33-60      2258.0000000        2304.2797852       -46.279785156    
 2489-42-363     2252.0000000        2304.5739746       -52.573974609    
 2489-55-349     2237.0000000        2312.4711914       -75.471191406    
 2429-61-61      2229.0000000        2325.3078613       -96.307861328    
 2429-66-25      2207.0000000        2320.7514648       -113.75146484    
 2429-71-53      2208.0000000        2320.9458008       -112.94580078    
 2457-22-65      2248.0000000        2309.9541016       -61.954101562    
 2457-26-341     2237.0000000        2310.8051758       -73.805175781    
 2457-31-335     2239.0000000        2307.9560547       -68.956054688    
 2457-33-60      2232.0000000        2306.6193848       -74.619384766    
 2457-42-363     2227.0000000        2307.2724609       -80.272460938    
 2457-48-337     2219.0000000        2312.5334473       -93.533447266    
 2457-56-18      2213.0000000        2315.0646973       -102.06469727    
 2457-61-47      2207.0000000        2313.1601562       -106.16015625    
 2457-66-32      2182.0000000        2309.2397461       -127.23974609    
 2457-71-14      2184.0000000        2309.0832520       -125.08325195    
 2457-71-42      2182.0000000        2309.4692383       -127.46923828    
 2457-71-365     2191.0000000        2312.1420898       -121.14208984    
 2426-61-61      2226.0000000        2316.1130371       -90.113037109    
 2426-66-25      2191.0000000        2311.9096680       -120.90966797    
 2378-22-66      2269.0000000        2321.4987793       -52.498779297    
 2378-26-341     2254.0000000        2322.0463867       -68.046386719    
 2378-31-335     2251.0000000        2318.9155273       -67.915527344    
 2377-7-1        2301.0000000        2317.5278320       -16.527832031    
 2377-12-92      2285.0000000        2320.0332031       -35.033203125    
 2382-1-365      2301.0000000        2311.1608887       -10.160888672    
 2369-16-364     2258.0000000        2315.1237793       -57.123779297    
 2397-10-255     2291.0000000        2331.3229980       -40.322998047    
 2381-66-32      2184.0000000        2326.3278809       -142.32788086    
 2368-56-25      2246.0000000        2342.5886230       -96.588623047    
 2368-61-48      2216.0000000        2338.9240723       -122.92407227    
 2364-56-25      2246.0000000        2340.8469238       -94.846923828    
 2364-61-48      2218.0000000        2337.3244629       -119.32446289    
 2364-66-24      2182.0000000        2332.7441406       -150.74414062    
 2364-71-14      2189.0000000        2332.0439453       -143.04394531    
 2364-71-365     2205.0000000        2335.4660645       -130.46606445    
 2361-56-25      2233.0000000        2338.1997070       -105.19970703    
 2361-61-48      2213.0000000        2334.8408203       -121.84082031    
 2361-66-24      2179.0000000        2330.4279785       -151.42797852    
 2361-71-14      2186.0000000        2329.9389648       -143.93896484    
 2361-71-365     2200.0000000        2333.0341797       -133.03417969    
 2349-42-364     2247.0000000        2332.4797363       -85.479736328    
 2349-48-341     2231.0000000        2338.5300293       -107.53002930    
 2349-56-18      2229.0000000        2341.5117188       -112.51171875    
 2349-61-48      2207.0000000        2337.9812012       -130.98120117    
 2349-66-24      2174.0000000        2333.4414062       -159.44140625    
 2349-71-14      2184.0000000        2332.8039551       -148.80395508    
 2349-71-365     2198.0000000        2336.0847168       -138.08471680    
 2422-32-60      2288.0000000        2340.8481445       -52.848144531    
 2422-33-60      2281.0000000        2339.6821289       -58.682128906    
 2422-42-363     2283.0000000        2340.4670410       -57.467041016    
 2422-48-357     2271.0000000        2347.7031250       -76.703125000    
 2422-55-349     2262.0000000        2352.1225586       -90.122558594    
 2422-61-3       2255.0000000        2346.6906738       -91.690673828    
 2406-22-65      2281.0000000        2339.6718750       -58.671875000    
 2396-16-298     2300.0000000        2337.6179199       -37.617919922    
 2396-22-32      2300.0000000        2340.7092285       -40.709228516    
 2396-27-10      2326.0000000        2340.4968262       -14.496826172    
 2401-22-65      2282.0000000        2337.7309570       -55.730957031    
 2376-26-341     2266.0000000        2340.7014160       -74.701416016    
 2365-22-65      2290.0000000        2338.2006836       -48.200683594    
 2365-27-4       2327.0000000        2338.3652344       -11.365234375    
 2335-56-18      2237.0000000        2344.3354492       -107.33544922    
 2335-60-322     2219.0000000        2340.4199219       -121.41992188    
 2335-65-326     2181.0000000        2335.6130371       -154.61303711    
 2335-71-365     2205.0000000        2338.7150879       -133.71508789    
 2348-56-18      2235.0000000        2348.1843262       -113.18432617    
 2348-61-48      2211.0000000        2344.4633789       -133.46337891    
 2348-66-24      2178.0000000        2339.8696289       -161.86962891    
 2348-71-365     2205.0000000        2342.2653809       -137.26538086    
 2347-42-364     2259.0000000        2341.8833008       -82.883300781    
 2347-48-337     2252.0000000        2348.8386230       -96.838623047    
 2347-56-18      2242.0000000        2352.1728516       -110.17285156    
 2347-61-48      2222.0000000        2347.9692383       -125.96923828    
 2347-66-24      2187.0000000        2342.8945312       -155.89453125    
 2380-61-48      2240.0000000        2348.4179688       -108.41796875    
 2392-61-48      2242.0000000        2348.2766113       -106.27661133    
 2391-61-48      2240.0000000        2348.6850586       -108.68505859    
 2391-66-25      2195.0000000        2343.3417969       -148.34179688    
 2374-66-40      2191.0000000        2348.0432129       -157.04321289    
 2374-71-365     2221.0000000        2350.8562012       -129.85620117    
 2354-16-361     2331.0000000        2364.3537598       -33.353759766    
 2353-48-274     2274.0000000        2372.3623047       -98.362304688    
 2352-22-65      2336.0000000        2377.7072754       -41.707275391    
 2351-66-45      2366.0000000        2398.6064453       -32.606445312    
 2351-71-42      2367.0000000        2399.2651367       -32.265136719    
 2351-71-365     2368.0000000        2399.4130859       -31.413085938    
 2341-55-348     2402.0000000        2432.5979004       -30.597900391    
 2341-66-45      2396.0000000        2410.4492188       -14.449218750    
 2341-71-42      2399.0000000        2410.3728027       -11.372802734    
 2341-71-365     2403.0000000        2411.0939941       -8.0939941406    
 2350-42-355     2373.0000000        2400.0029297       -27.002929688    
 2350-48-355     2372.0000000        2414.0344238       -42.034423828    
 2350-55-348     2373.0000000        2422.6552734       -49.655273438    
 2350-61-3       2371.0000000        2412.4025879       -41.402587891    
 2350-71-42      2367.0000000        2402.7290039       -35.729003906    
 2350-71-365     2368.0000000        2404.4262695       -36.426269531    
 2358-48-306     2396.0000000        2430.6547852       -34.654785156    
 2215-1-357      2435.0000000        2439.8662109       -4.8662109375    
 2215-6-295      2429.0000000        2440.9357910       -11.935791016    
 2215-10-349     2430.0000000        2444.1381836       -14.138183594    
 2215-22-68      2427.0000000        2449.4941406       -22.494140625    
 2215-31-335     2427.0000000        2447.7673340       -20.767333984    
 2215-33-1       2433.0000000        2446.7031250       -13.703125000    
 2215-39-60      2425.0000000        2446.4770508       -21.477050781    
 2215-42-356     2425.0000000        2447.2226562       -22.222656250    
 2215-48-336     2428.0000000        2456.2832031       -28.283203125    
 2164-48-337     2411.0000000        2436.0771484       -25.077148438    
 2164-56-24      2419.0000000        2441.2551270       -22.255126953    
 2164-61-54      2410.0000000        2434.5898438       -24.589843750    
 2164-66-24      2417.0000000        2427.7968750       -10.796875000    
 2164-71-41      2416.0000000        2426.9670410       -10.967041016    
 2135-48-337     2421.0000000        2446.7321777       -25.732177734    
 2135-56-24      2428.0000000        2452.5881348       -24.588134766    
 2135-61-55      2415.0000000        2445.5712891       -30.571289062    
 2135-66-26      2427.0000000        2440.6777344       -13.677734375    
 2135-71-42      2427.0000000        2438.8579102       -11.857910156    
 2238-56-23      2443.0000000        2446.0717773       -3.0717773438    
 2334-22-67      2386.0000000        2427.7502441       -41.750244141    
 2334-26-349     2386.0000000        2427.6000977       -41.600097656    
 2334-33-60      2381.0000000        2422.9375000       -41.937500000    
 2334-42-363     2387.0000000        2422.3701172       -35.370117188    
 2334-48-274     2394.0000000        2435.3659668       -41.365966797    
 2334-55-321     2395.0000000        2442.8920898       -47.892089844    
 2334-60-319     2396.0000000        2434.2507324       -38.250732422    
 2334-65-326     2388.0000000        2425.8750000       -37.875000000    
 2334-71-14      2393.0000000        2424.6306152       -31.630615234    
 2334-71-42      2391.0000000        2424.9252930       -33.925292969    
 2334-71-365     2396.0000000        2427.0117188       -31.011718750    
 2225-55-321     2384.0000000        2433.7785645       -49.778564453    
 2223-55-279     2360.0000000        2435.0183105       -75.018310547    
 2223-61-47      2357.0000000        2421.2470703       -64.247070312    
 2223-66-32      2375.0000000        2411.9060059       -36.906005859    
 2223-71-14      2337.0000000        2409.2661133       -72.266113281    
 2223-71-365     2364.0000000        2416.0898438       -52.089843750    
 2224-55-321     2382.0000000        2434.1013184       -52.101318359    
 2224-61-47      2358.0000000        2421.8652344       -63.865234375    
 2224-66-32      2371.0000000        2412.4528809       -41.452880859    
 2142-48-274     2338.0000000        2421.0852051       -83.085205078    
 2150-48-306     2340.0000000        2421.3410645       -81.341064453    
 2150-55-321     2336.0000000        2428.2788086       -92.278808594    
 2141-48-274     2337.0000000        2422.7812500       -85.781250000    
 2141-55-321     2328.0000000        2429.1254883       -101.12548828    
 2141-61-47      2327.0000000        2421.0698242       -94.069824219    
 2141-71-14      2313.0000000        2413.7897949       -100.78979492    
 2141-71-365     2336.0000000        2416.1437988       -80.143798828    
 2140-48-274     2358.0000000        2427.4187012       -69.418701172    
 2140-55-321     2348.0000000        2433.7202148       -85.720214844    
 2140-66-18      2338.0000000        2417.5175781       -79.517578125    
 2209-27-11      2417.0000000        2436.0170898       -19.017089844    
 2209-31-351     2416.0000000        2432.5661621       -16.566162109    
 2209-37-343     2408.0000000        2430.0942383       -22.094238281    
 2208-56-23      2417.0000000        2446.8203125       -29.820312500    
 2208-60-321     2410.0000000        2437.8984375       -27.898437500    
 2208-65-299     2408.0000000        2428.2236328       -20.223632812    
 2208-71-32      2408.0000000        2427.7358398       -19.735839844    
 2208-71-365     2407.0000000        2431.4934082       -24.493408203    
 2206-48-274     2414.0000000        2440.9880371       -26.988037109    
 2206-55-321     2407.0000000        2448.2841797       -41.284179688    
 2206-61-47      2405.0000000        2438.7419434       -33.741943359    
 2206-71-14      2394.0000000        2429.2800293       -35.280029297    
 2206-71-365     2399.0000000        2432.7275391       -33.727539062    
 2182-55-321     2385.0000000        2441.8850098       -56.885009766    
 2174-55-279     2360.0000000        2443.2502441       -83.250244141    
 2174-60-319     2380.0000000        2430.6440430       -50.644042969    
 2174-65-326     2355.0000000        2420.9736328       -65.973632812    
 2174-71-14      2338.0000000        2419.3867188       -81.386718750    
 2174-71-365     2373.0000000        2425.3020020       -52.302001953    
 2181-55-321     2368.0000000        2442.6647949       -74.664794922    
 2181-61-47      2366.0000000        2431.2546387       -65.254638672    
 2139-1-357      2407.0000000        2416.9401855       -9.9401855469    
 2138-48-274     2392.0000000        2435.2763672       -43.276367188    
 2138-55-321     2390.0000000        2441.9909668       -51.990966797    
 2138-61-47      2391.0000000        2432.2646484       -41.264648438    
 2138-66-24      2397.0000000        2424.3518066       -27.351806641    
 2138-71-14      2366.0000000        2421.9384766       -55.938476562    
 2138-71-365     2393.0000000        2428.1967773       -35.196777344    
 2253-16-361     2366.0000000        2405.9201660       -39.920166016    
 2251-48-274     2395.0000000        2428.5349121       -33.534912109    
 2251-55-321     2391.0000000        2438.2670898       -47.267089844    
 2314-12-116     2371.0000000        2398.0852051       -27.085205078    
 2314-22-67      2372.0000000        2406.0305176       -34.030517578    
 2314-33-60      2367.0000000        2398.8896484       -31.889648438    
 2290-7-322      2357.0000000        2395.6940918       -38.694091797    
 2290-10-32      2363.0000000        2392.5458984       -29.545898438    
 2290-42-364     2348.0000000        2394.9191895       -46.919189453    
 2290-48-355     2356.0000000        2410.8232422       -54.823242188    
 2290-55-348     2378.0000000        2420.8029785       -42.802978516    
 2290-65-354     2361.0000000        2396.7453613       -35.745361328    
 2290-71-42      2379.0000000        2396.1916504       -17.191650391    
 2290-71-365     2357.0000000        2400.7219238       -43.721923828    
 2286-42-357     2345.0000000        2399.1601562       -54.160156250    
 2286-48-355     2344.0000000        2414.1010742       -70.101074219    
 2286-61-3       2351.0000000        2411.5065918       -60.506591797    
 2286-66-45      2371.0000000        2401.6601562       -30.660156250    
 2287-42-357     2358.0000000        2396.3107910       -38.310791016    
 2287-61-3       2363.0000000        2409.3334961       -46.333496094    
 2287-71-42      2383.0000000        2397.3666992       -14.366699219    
 2287-71-365     2360.0000000        2402.2534180       -42.253417969    
 2278-22-67      2363.0000000        2403.2495117       -40.249511719    
 2278-26-362     2379.0000000        2402.4428711       -23.442871094    
 2278-31-335     2357.0000000        2396.0944824       -39.094482422    
 2278-33-60      2364.0000000        2393.9089355       -29.908935547    
 2278-48-274     2365.0000000        2409.6245117       -44.624511719    
 2129-66-40      2194.0000000        2392.9301758       -198.93017578    
 2129-71-42      2229.0000000        2392.4482422       -163.44824219    
 2129-71-365     2235.0000000        2394.3806152       -159.38061523    
 2146-7-1        2375.0000000        2389.3955078       -14.395507812    
 2146-11-86      2363.0000000        2392.4313965       -29.431396484    
 2146-22-67      2347.0000000        2397.2849121       -50.284912109    
 2146-37-263     2287.0000000        2392.7683105       -105.76831055    
 2147-42-363     2279.0000000        2392.6584473       -113.65844727    
 2147-48-362     2265.0000000        2400.6809082       -135.68090820    
 2147-55-349     2260.0000000        2407.4812012       -147.48120117    
 2145-2-132      2385.0000000        2392.6499023       -7.6499023438    
 2144-2-132      2390.0000000        2401.0471191       -11.047119141    
 2126-48-274     2297.0000000        2418.6630859       -121.66308594    
 2126-55-321     2282.0000000        2426.4760742       -144.47607422    
 2126-61-47      2279.0000000        2416.6271973       -137.62719727    
 2126-71-14      2274.0000000        2407.5009766       -133.50097656    
 2126-71-365     2290.0000000        2411.3730469       -121.37304688    
 2315-10-262     2351.0000000        2376.2600098       -25.260009766    
 2288-10-262     2361.0000000        2381.9074707       -20.907470703    
 2248-56-23      2268.0000000        2391.7226562       -123.72265625    
 2239-16-361     2347.0000000        2378.4301758       -31.430175781    
 2239-22-32      2337.0000000        2383.5673828       -46.567382812    
 2239-27-10      2328.0000000        2382.5290527       -54.529052734    
 2239-56-23      2274.0000000        2393.2885742       -119.28857422    
 2267-56-25      2257.0000000        2373.2944336       -116.29443359    
 2255-22-65      2326.0000000        2374.3383789       -48.338378906    
 2255-32-60      2302.0000000        2367.1135254       -65.113525391    
 2255-38-60      2294.0000000        2365.7119141       -71.711914062    
 2240-56-25      2269.0000000        2392.0097656       -123.00976562    
 2240-66-32      2195.0000000        2375.4313965       -180.43139648    
 2240-71-54      2245.0000000        2374.1059570       -129.10595703    
 2114-61-49      2224.0000000        2389.1289062       -165.12890625    
 2114-66-40      2195.0000000        2382.3137207       -187.31372070    
 2114-71-42      2225.0000000        2381.3190918       -156.31909180    
 2114-71-365     2238.0000000        2384.7194824       -146.71948242    
 2191-56-23      2242.0000000        2395.9736328       -153.97363281    
 2191-61-61      2224.0000000        2387.9765625       -163.97656250    
 2191-66-25      2194.0000000        2380.8027344       -186.80273438    
 2210-48-334     2283.0000000        2396.0527344       -113.05273438    
 2210-55-321     2270.0000000        2404.4077148       -134.40771484    
 2210-61-47      2259.0000000        2393.9277344       -134.92773438    
 2210-66-24      2229.0000000        2385.5686035       -156.56860352    
 2210-71-42      2225.0000000        2384.1838379       -159.18383789    
 2210-71-365     2238.0000000        2389.3964844       -151.39648438    
 2162-48-274     2254.0000000        2390.0166016       -136.01660156    
 2162-65-354     2184.0000000        2381.7648926       -197.76489258    
 2162-71-42      2213.0000000        2381.3159180       -168.31591797    
 2162-71-365     2224.0000000        2383.9343262       -159.93432617    
 2298-61-48      2210.0000000        2352.1870117       -142.18701172    
 2298-66-24      2176.0000000        2347.3564453       -171.35644531    
 2298-71-14      2191.0000000        2346.6542969       -155.65429688    
 2298-71-365     2205.0000000        2349.6503906       -144.65039062    
 2250-22-69      2301.0000000        2346.9519043       -45.951904297    
 2250-27-61      2307.0000000        2347.0124512       -40.012451172    
 2227-42-363     2240.0000000        2341.2416992       -101.24169922    
 2227-48-365     2217.0000000        2347.5771484       -130.57714844    
 2227-55-349     2199.0000000        2351.4118652       -152.41186523    
 2227-61-54      2174.0000000        2346.8549805       -172.85498047    
 2227-66-45      2151.0000000        2342.4602051       -191.46020508    
 2227-71-49      2170.0000000        2342.6435547       -172.64355469    
 2227-71-365     2178.0000000        2344.1157227       -166.11572266    
 2152-22-68      2316.0000000        2363.4755859       -47.475585938    
 2263-10-144     2292.0000000        2319.2929688       -27.292968750    
 2276-22-61      2265.0000000        2323.4499512       -58.449951172    
 2276-26-301     2254.0000000        2323.5590820       -69.559082031    
 2276-48-362     2208.0000000        2326.3623047       -118.36230469    
 2276-55-349     2193.0000000        2329.5378418       -136.53784180    
 2276-61-33      2176.0000000        2326.1862793       -150.18627930    
 2276-66-32      2153.0000000        2322.3229980       -169.32299805    
 2276-71-14      2154.0000000        2322.8232422       -168.82324219    
 2276-71-41      2163.0000000        2322.8583984       -159.85839844    
 2276-71-365     2168.0000000        2324.4660645       -156.46606445    
 2229-61-33      2163.0000000        2333.9824219       -170.98242188    
 2229-66-32      2144.0000000        2330.0234375       -186.02343750    
 2229-71-14      2160.0000000        2330.6279297       -170.62792969    
 2229-71-41      2160.0000000        2330.6232910       -170.62329102    
 2229-71-365     2165.0000000        2331.8002930       -166.80029297    
 2235-42-335     2226.0000000        2326.3957520       -100.39575195    
 2130-8-49       2299.0000000        2323.7951660       -24.795166016    
 2130-12-58      2285.0000000        2323.9624023       -38.962402344    
 2130-17-87      2271.0000000        2325.3881836       -54.388183594    
 2130-22-79      2267.0000000        2326.5722656       -59.572265625    
 2130-32-60      2246.0000000        2326.4729004       -80.472900391    
 2130-42-363     2218.0000000        2325.4521484       -107.45214844    
 2130-48-362     2201.0000000        2330.6911621       -129.69116211    
 2153-48-362     2195.0000000        2329.3098145       -134.30981445    
 2153-55-349     2174.0000000        2332.1740723       -158.17407227    
 2153-61-33      2157.0000000        2328.8935547       -171.89355469    
 2153-71-41      2153.0000000        2326.4965820       -173.49658203    
 2153-71-365     2157.0000000        2326.9694824       -169.96948242    
 2217-66-32      2149.0000000        2338.4130859       -189.41308594    
 2231-22-65      2279.0000000        2332.9848633       -53.984863281    
 2231-42-363     2229.0000000        2330.6867676       -101.68676758    
 2231-48-362     2209.0000000        2336.4453125       -127.44531250    
 2231-55-349     2193.0000000        2339.9772949       -146.97729492    
 2231-61-54      2170.0000000        2335.9184570       -165.91845703    
 2231-66-49      2150.0000000        2331.8381348       -181.83813477    
 2231-71-41      2166.0000000        2332.3608398       -166.36083984    
 2231-71-365     2172.0000000        2333.5356445       -161.53564453    
 2228-42-363     2226.0000000        2331.1994629       -105.19946289    
 2228-48-362     2207.0000000        2336.9687500       -129.96875000    
 2228-55-349     2190.0000000        2340.4584961       -150.45849609    
 2228-61-54      2167.0000000        2336.4360352       -169.43603516    
 2228-66-49      2146.0000000        2332.3684082       -186.36840820    
 2228-71-41      2163.0000000        2332.8579102       -169.85791016    
 2228-71-365     2169.0000000        2334.0729980       -165.07299805    
 2056-12-58      2310.0000000        2340.6750488       -30.675048828    
 2056-22-66      2295.0000000        2343.7727051       -48.772705078    
 2056-27-61      2284.0000000        2344.2924805       -60.292480469    
 2032-7-32       2315.0000000        2334.0336914       -19.033691406    
 2032-12-58      2298.0000000        2335.4401855       -37.440185547    
 2032-32-83      2257.0000000        2338.4121094       -81.412109375    
 2033-42-363     2223.0000000        2337.2463379       -114.24633789    
 2033-48-362     2197.0000000        2342.7443848       -145.74438477    
 2033-56-34      2161.0000000        2345.0981445       -184.09814453    
 2033-61-56      2153.0000000        2341.7255859       -188.72558594    
 2033-66-54      2142.0000000        2338.3110352       -196.31103516    
 2033-71-49      2159.0000000        2339.2563477       -180.25634766    
 2033-71-365     2161.0000000        2339.2849121       -178.28491211    
 2000-37-34      2238.0000000        2338.9709473       -100.97094727    
 2000-55-349     2170.0000000        2347.0170898       -177.01708984    
 2004-48-357     2201.0000000        2345.9333496       -144.93334961    
 2004-71-49      2165.0000000        2342.3498535       -177.34985352    
 2004-71-365     2168.0000000        2342.3725586       -174.37255859    
 2019-17-82      2303.0000000        2346.2780762       -43.278076172    
 2019-22-69      2296.0000000        2347.8205566       -51.820556641    
 2019-42-335     2229.0000000        2347.0366211       -118.03662109    
 2019-48-365     2203.0000000        2352.8730469       -149.87304688    
 2019-66-40      2144.0000000        2348.1076660       -204.10766602    
 2019-71-49      2164.0000000        2348.8232422       -184.82324219    
 2019-71-365     2169.0000000        2348.8061523       -179.80615234    
 2015-66-40      2141.0000000        2347.3403320       -206.34033203    
 2015-71-49      2161.0000000        2348.0285645       -187.02856445    
 2015-71-365     2166.0000000        2348.1081543       -182.10815430    
 2023-42-363     2228.0000000        2346.5205078       -118.52050781    
 2023-48-365     2202.0000000        2352.2927246       -150.29272461    
 2023-55-349     2167.0000000        2354.8078613       -187.80786133    
 2023-61-54      2153.0000000        2351.1892090       -198.18920898    
 2023-71-49      2161.0000000        2348.3159180       -187.31591797    
 2023-71-365     2166.0000000        2348.3720703       -182.37207031    
 2060-48-365     2222.0000000        2375.6303711       -153.63037109    
 2060-55-356     2188.0000000        2379.8381348       -191.83813477    
 2060-61-54      2164.0000000        2374.6032715       -210.60327148    
 2060-66-19      2151.0000000        2369.7016602       -218.70166016    
 2060-71-42      2177.0000000        2369.7436523       -192.74365234    
 2060-71-365     2185.0000000        2370.6435547       -185.64355469    
 2115-22-66      2303.0000000        2353.9228516       -50.922851562    
 2105-42-363     2241.0000000        2351.3454590       -110.34545898    
 2105-48-362     2214.0000000        2357.9711914       -143.97119141    
 2105-56-33      2183.0000000        2361.5097656       -178.50976562    
 2105-61-33      2164.0000000        2357.0466309       -193.04663086    
 2105-66-32      2144.0000000        2352.4638672       -208.46386719    
 2105-71-42      2167.0000000        2352.7758789       -185.77587891    
 2105-71-365     2174.0000000        2353.6523438       -179.65234375    
 2098-65-354     2136.0000000        2352.6918945       -216.69189453    
 2098-71-42      2167.0000000        2353.0100098       -186.01000977    
 2098-71-365     2174.0000000        2353.9108887       -179.91088867    
 2103-42-363     2240.0000000        2349.9382324       -109.93823242    
 2103-48-362     2214.0000000        2356.4926758       -142.49267578    
 2103-61-33      2163.0000000        2355.5825195       -192.58251953    
 2103-66-32      2143.0000000        2351.0483398       -208.04833984    
 2103-71-42      2166.0000000        2351.4128418       -185.41284180    
 2103-71-365     2173.0000000        2352.2194824       -179.21948242    
 2055-22-66      2304.0000000        2359.3054199       -55.305419922    
 2055-32-83      2278.0000000        2358.5498047       -80.549804688    
 2014-12-66      2336.0000000        2365.0974121       -29.097412109    
 2014-22-69      2316.0000000        2369.0803223       -53.080322266    
 2014-27-3       2305.0000000        2369.1591797       -64.159179688    
 2014-42-363     2244.0000000        2367.4274902       -123.42749023    
 2014-48-357     2217.0000000        2374.2170410       -157.21704102    
 2014-66-19      2145.0000000        2368.8098145       -223.80981445    
 2014-71-42      2170.0000000        2369.0478516       -199.04785156    
 2014-71-365     2177.0000000        2369.3046875       -192.30468750    
 2013-42-363     2241.0000000        2367.3693848       -126.36938477    
 2013-48-357     2214.0000000        2374.0981445       -160.09814453    
 2013-55-350     2174.0000000        2377.4597168       -203.45971680    
 2013-61-33      2152.0000000        2373.1059570       -221.10595703    
 2013-66-19      2142.0000000        2368.7407227       -226.74072266    
 2013-71-42      2167.0000000        2368.9516602       -201.95166016    
 2013-71-365     2174.0000000        2369.2602539       -195.26025391    
 1974-22-79      2318.0000000        2371.7543945       -53.754394531    
 1974-26-307     2301.0000000        2371.8830566       -70.883056641    
 1974-42-363     2246.0000000        2370.6672363       -124.66723633    
 1974-48-357     2218.0000000        2377.1945801       -159.19458008    
 1966-42-363     2245.0000000        2369.9179688       -124.91796875    
 1966-48-350     2223.0000000        2376.3530273       -153.35302734    
 1966-55-350     2165.0000000        2378.9472656       -213.94726562    
 1966-61-33      2154.0000000        2375.3063965       -221.30639648    
 1966-66-19      2145.0000000        2371.3886719       -226.38867188    
 1966-71-49      2171.0000000        2371.6247559       -200.62475586    
 1966-71-365     2177.0000000        2371.5612793       -194.56127930    
 1972-71-49      2170.0000000        2373.1508789       -203.15087891    
 1972-71-365     2176.0000000        2373.2121582       -197.21215820    
 2036-11-305     2344.0000000        2387.8854980       -43.885498047    
 2035-48-365     2231.0000000        2397.6335449       -166.63354492    
 2035-56-18      2185.0000000        2401.5173340       -216.51733398    
 2035-61-54      2162.0000000        2396.7536621       -234.75366211    
 2035-66-45      2155.0000000        2391.8957520       -236.89575195    
 2035-71-42      2184.0000000        2391.8876953       -207.88769531    
 2035-71-365     2192.0000000        2392.2548828       -200.25488281    
 1999-22-69      2326.0000000        2380.7478027       -54.747802734    
 1999-26-349     2314.0000000        2380.8334961       -66.833496094    
 1999-32-73      2299.0000000        2380.4648438       -81.464843750    
 1999-42-363     2250.0000000        2379.0810547       -129.08105469    
 1999-48-357     2223.0000000        2386.0100098       -163.01000977    
 1999-55-353     2185.0000000        2389.3662109       -204.36621094    
 1999-60-309     2168.0000000        2385.3220215       -217.32202148    
 1999-66-28      2150.0000000        2380.6499023       -230.64990234    
 1999-71-42      2176.0000000        2380.6691895       -204.66918945    
 1999-71-365     2184.0000000        2381.0146484       -197.01464844    
 1957-12-66      2349.0000000        2381.0109863       -32.010986328    
 1957-22-79      2326.0000000        2384.6894531       -58.689453125    
 1957-27-3       2317.0000000        2384.9184570       -67.918457031    
 1957-32-60      2301.0000000        2385.1066895       -84.106689453    
 1957-42-363     2251.0000000        2383.5117188       -132.51171875    
 1957-48-357     2224.0000000        2390.2629395       -166.26293945    
 1957-55-353     2183.0000000        2393.0993652       -210.09936523    
 1957-60-306     2159.0000000        2389.5771484       -230.57714844    
 1957-66-19      2149.0000000        2385.2790527       -236.27905273    
 1957-71-42      2176.0000000        2385.3530273       -209.35302734    
 1957-71-365     2183.0000000        2385.2751465       -202.27514648    
 2125-48-306     2306.0000000        2416.2546387       -110.25463867    
 2125-55-321     2297.0000000        2424.5312500       -127.53125000    
 2086-48-274     2286.0000000        2415.8510742       -129.85107422    
 2086-56-48      2275.0000000        2420.5947266       -145.59472656    
 2086-61-47      2260.0000000        2414.4248047       -154.42480469    
 2086-66-26      2236.0000000        2408.5346680       -172.53466797    
 2086-71-14      2266.0000000        2408.1242676       -142.12426758    
 2086-71-365     2276.0000000        2409.5781250       -133.57812500    
 2102-26-349     2337.0000000        2404.9511719       -67.951171875    
 2102-48-274     2272.0000000        2409.5703125       -137.57031250    
 2102-55-321     2250.0000000        2415.7055664       -165.70556641    
 2102-60-319     2236.0000000        2408.4980469       -172.49804688    
 2102-66-1       2213.0000000        2401.9372559       -188.93725586    
 2102-71-42      2243.0000000        2401.7265625       -158.72656250    
 2102-71-365     2253.0000000        2403.1257324       -150.12573242    
 2054-39-31      2277.0000000        2400.4433594       -123.44335938    
 2054-48-357     2251.0000000        2408.9799805       -157.97998047    
 2054-55-349     2217.0000000        2413.5949707       -196.59497070    
 2054-61-3       2190.0000000        2408.0754395       -218.07543945    
 2054-66-40      2178.0000000        2402.6931152       -224.69311523    
 2054-71-42      2206.0000000        2402.6018066       -196.60180664    
 2054-71-365     2214.0000000        2403.2053223       -189.20532227    
 2063-22-69      2354.0000000        2411.2143555       -57.214355469    
 1996-11-86      2369.0000000        2400.1589355       -31.158935547    
 1997-22-60      2344.0000000        2403.6774902       -59.677490234    
 1997-32-60      2306.0000000        2403.6916504       -97.691650391    
 1997-55-349     2199.0000000        2412.7851562       -213.78515625    
 1997-65-354     2163.0000000        2403.8605957       -240.86059570    
 1997-71-42      2191.0000000        2403.9194336       -212.91943359    
 1997-71-365     2199.0000000        2403.8041992       -204.80419922    
 1949-48-334     2226.0000000        2411.9587402       -185.95874023    
 1949-56-17      2197.0000000        2414.8647461       -217.86474609    
 1942-56-17      2198.0000000        2414.3315430       -216.33154297    
 1942-61-53      2161.0000000        2410.8884277       -249.88842773    
 1942-66-19      2167.0000000        2406.8452148       -239.84521484    
 1942-71-42      2192.0000000        2406.7770996       -214.77709961    
 1942-71-365     2199.0000000        2406.6984863       -207.69848633    
 1943-33-314     2310.0000000        2390.8723145       -80.872314453    
 2078-65-355     2293.0000000        2430.0395508       -137.03955078    
 2078-71-42      2295.0000000        2429.6840820       -134.68408203    
 2078-71-365     2311.0000000        2431.0590820       -120.05908203    
 2072-16-364     2386.0000000        2422.3715820       -36.371582031    
 2072-27-10      2370.0000000        2428.1643066       -58.164306641    
 2030-42-362     2302.0000000        2426.6601562       -124.66015625    
 2030-48-357     2279.0000000        2434.1474609       -155.14746094    
 2030-55-348     2271.0000000        2437.9184570       -166.91845703    
 2030-61-3       2261.0000000        2433.1474609       -172.14746094    
 2030-65-355     2258.0000000        2428.2001953       -170.20019531    
 2030-71-42      2270.0000000        2428.1213379       -158.12133789    
 2030-71-365     2276.0000000        2428.6450195       -152.64501953    
 2082-22-32      2373.0000000        2420.1437988       -47.143798828    
 2081-8-101      2392.0000000        2415.6635742       -23.663574219    
 2081-12-109     2384.0000000        2415.6184082       -31.618408203    
 2081-22-68      2370.0000000        2421.1501465       -51.150146484    
 2081-42-364     2318.0000000        2416.9404297       -98.940429688    
 2081-56-18      2301.0000000        2430.4360352       -129.43603516    
 2081-71-13      2288.0000000        2417.8977051       -129.89770508    
 2081-71-365     2286.0000000        2419.6528320       -133.65283203    
 2101-8-51       2389.0000000        2411.1347656       -22.134765625    
 2101-11-86      2381.0000000        2411.5424805       -30.542480469    
 2101-22-32      2365.0000000        2416.9921875       -51.992187500    
 2101-27-10      2363.0000000        2417.2163086       -54.216308594    
 1986-27-81      2345.0000000        2417.8525391       -72.852539062    
 1986-42-362     2280.0000000        2415.6140137       -135.61401367    
 1986-48-334     2249.0000000        2422.8781738       -173.87817383    
 1986-55-321     2221.0000000        2426.0634766       -205.06347656    
 1986-61-47      2189.0000000        2422.0878906       -233.08789062    
 1986-66-32      2184.0000000        2417.7385254       -233.73852539    
 1986-71-14      2211.0000000        2417.7524414       -206.75244141    
 1986-71-42      2210.0000000        2417.6931152       -207.69311523    
 1986-71-365     2216.0000000        2417.6789551       -201.67895508    
 1956-32-83      2331.0000000        2423.7873535       -92.787353516    
 1956-37-34      2320.0000000        2422.7082520       -102.70825195    
 1948-48-274     2256.0000000        2434.5417480       -178.54174805    
 2117-8-182      2421.0000000        2448.4633789       -27.463378906    
 2093-66-26      2423.0000000        2448.8583984       -25.858398438    
 2071-16-364     2400.0000000        2431.8913574       -31.891357422    
 2053-56-33      2294.0000000        2438.6557617       -144.65576172    
 2053-65-355     2269.0000000        2427.8784180       -158.87841797    
 2053-71-43      2283.0000000        2427.7917480       -144.79174805    
 2053-71-365     2293.0000000        2428.9057617       -135.90576172    
 2046-61-3       2256.0000000        2435.2675781       -179.26757812    
 2046-65-355     2242.0000000        2430.3671875       -188.36718750    
 2046-71-49      2264.0000000        2430.4248047       -166.42480469    
 2046-71-365     2270.0000000        2430.8908691       -160.89086914    
 2029-66-45      2227.0000000        2429.4023438       -202.40234375    
 2029-71-43      2250.0000000        2429.5017090       -179.50170898    
 2029-71-365     2255.0000000        2429.7270508       -174.72705078    
 2026-71-43      2248.0000000        2431.3300781       -183.33007812    
 2026-71-365     2253.0000000        2431.4560547       -178.45605469    
 2028-71-43      2251.0000000        2431.8857422       -180.88574219    
 2028-71-365     2256.0000000        2432.0854492       -176.08544922    
 2048-56-33      2303.0000000        2448.2541504       -145.25415039    
 2048-65-355     2301.0000000        2439.4765625       -138.47656250    
 2048-71-49      2296.0000000        2439.1125488       -143.11254883    
 2048-71-365     2315.0000000        2440.3808594       -125.38085938    
 2049-55-347     2298.0000000        2446.9497070       -148.94970703    
 2049-65-355     2294.0000000        2437.7912598       -143.79125977    
 2049-71-43      2294.0000000        2437.4204102       -143.42041016    
 2049-71-365     2308.0000000        2438.6220703       -130.62207031    
 1995-22-69      2376.0000000        2432.7302246       -56.730224609    
 1995-26-280     2360.0000000        2432.8459473       -72.845947266    
 1995-42-355     2298.0000000        2431.1813965       -133.18139648    
 1995-48-357     2272.0000000        2437.5759277       -165.57592773    
 1995-56-17      2243.0000000        2440.1442871       -197.14428711    
 1995-61-3       2216.0000000        2437.0136719       -221.01367188    
 1995-65-355     2209.0000000        2433.0424805       -224.04248047    
 1995-71-43      2234.0000000        2433.0800781       -199.08007812    
 1995-71-365     2238.0000000        2432.9763184       -194.97631836    
 1947-22-79      2368.0000000        2432.0893555       -64.089355469    
 1947-26-349     2357.0000000        2432.5964355       -75.596435547    
 1947-32-73      2330.0000000        2432.9758301       -102.97583008    
 1947-39-31      2300.0000000        2431.1228027       -131.12280273    
 1947-48-355     2258.0000000        2437.6169434       -179.61694336    
 1947-55-348     2229.0000000        2439.5085449       -210.50854492    
 1947-61-3       2202.0000000        2437.1640625       -235.16406250    
 1947-66-1       2200.0000000        2433.7646484       -233.76464844    
 1947-71-43      2220.0000000        2433.6914062       -213.69140625    
 1947-71-365     2224.0000000        2433.4106445       -209.41064453    
 1985-56-25      2240.0000000        2445.9609375       -205.96093750    
 1985-66-33      2212.0000000        2439.4592285       -227.45922852    
 1985-71-42      2234.0000000        2439.2229004       -205.22290039    
 2017-42-363     2298.0000000        2432.9448242       -134.94482422    
 2017-48-337     2272.0000000        2439.2424316       -167.24243164    
 2017-56-24      2232.0000000        2441.6682129       -209.66821289    
 2017-61-55      2217.0000000        2438.7414551       -221.74145508    
 2017-66-24      2211.0000000        2434.9445801       -223.94458008    
 2017-71-42      2234.0000000        2434.8293457       -200.82934570    
 1941-16-364     2401.0000000        2445.1479492       -44.147949219    
 2339-1-365      2477.0000000        2491.5683594       -14.568359375    
 2339-12-113     2470.0000000        2497.5781250       -27.578125000    
 2339-22-74      2475.0000000        2504.4399414       -29.439941406    
 2435-11-80      2546.0000000        2553.9738770       -7.9738769531    
 2435-22-72      2542.0000000        2562.9462891       -20.946289062    
 2443-48-336     2547.0000000        2591.0583496       -44.058349609    
 2443-56-20      2553.0000000        2594.7219238       -41.721923828    
 2443-61-54      2557.0000000        2586.8957520       -29.895751953    
 2443-66-24      2554.0000000        2575.5366211       -21.536621094    
 2443-71-42      2576.0000000        2572.3554688        3.6445312500    
 2379-22-74      2529.0000000        2569.7600098       -40.760009766    
 2379-42-356     2540.0000000        2596.1201172       -56.120117188    
 2379-48-336     2543.0000000        2602.3415527       -59.341552734    
 2379-56-19      2542.0000000        2610.7404785       -68.740478516    
 2379-61-55      2541.0000000        2592.9567871       -51.956787109    
 2379-66-27      2540.0000000        2576.1550293       -36.155029297    
 2379-71-42      2542.0000000        2573.9475098       -31.947509766    
 2375-42-357     2537.0000000        2596.2861328       -59.286132812    
 2375-48-350     2537.0000000        2601.7656250       -64.765625000    
 2375-55-348     2533.0000000        2611.0202637       -78.020263672    
 2375-61-48      2534.0000000        2591.6591797       -57.659179688    
 2375-65-350     2532.0000000        2573.9216309       -41.921630859    
 2375-71-55      2534.0000000        2572.4592285       -38.459228516    
 2375-71-365     2537.0000000        2575.9575195       -38.957519531    
 2338-22-74      2520.0000000        2561.1369629       -41.136962891    
 2338-48-355     2525.0000000        2592.6132812       -67.613281250    
 2338-56-5       2527.0000000        2602.2836914       -75.283691406    
 2338-61-48      2518.0000000        2581.1430664       -63.143066406    
 2338-65-350     2512.0000000        2562.6303711       -50.630371094    
 2338-71-55      2514.0000000        2562.5476074       -48.547607422    
 2338-71-365     2515.0000000        2566.7307129       -51.730712891    
 2205-22-74      2581.0000000        2581.6843262      -0.68432617188    
 2200-22-85      2588.0000000        2583.7631836        4.2368164062    
 2189-61-55      2613.0000000        2599.5747070        13.425292969    
 2173-61-60      2348.0000000        2578.5585938       -230.55859375    
 2323-22-74      2524.0000000        2557.4511719       -33.451171875    
 2193-48-336     2511.0000000        2540.4172363       -29.417236328    
 2193-56-19      2510.0000000        2544.4211426       -34.421142578    
 2193-61-55      2497.0000000        2532.9616699       -35.961669922    
 2193-66-27      2479.0000000        2526.5534668       -47.553466797    
 2193-71-42      2474.0000000        2525.8217773       -51.821777344    
 2100-12-113     2520.0000000        2528.3437500       -8.3437500000    
 2100-22-75      2520.0000000        2531.0659180       -11.065917969    
 2100-42-357     2510.0000000        2536.3254395       -26.325439453    
 2100-48-336     2507.0000000        2545.2783203       -38.278320312    
 2100-55-347     2504.0000000        2545.6320801       -41.632080078    
 2100-61-48      2491.0000000        2542.3835449       -51.383544922    
 2100-65-356     2472.0000000        2537.1545410       -65.154541016    
 2100-71-42      2467.0000000        2536.0317383       -69.031738281    
 2100-71-54      2466.0000000        2536.0371094       -70.037109375    
 2100-71-365     2471.0000000        2536.1145020       -65.114501953    
 2324-27-11      2564.0000000        2562.1049805        1.8950195312    
 2324-38-91      2574.0000000        2561.5971680        12.402832031    
 2324-42-356     2520.0000000        2573.6962891       -53.696289062    
 2324-56-20      2523.0000000        2586.4382324       -63.438232422    
 2324-66-28      2504.0000000        2556.4055176       -52.405517578    
 2324-71-63      2498.0000000        2555.3371582       -57.337158203    
 2285-22-74      2515.0000000        2547.4240723       -32.424072266    
 2285-32-67      2518.0000000        2553.2836914       -35.283691406    
 2285-38-60      2513.0000000        2553.8615723       -40.861572266    
 2285-71-63      2515.0000000        2549.1765137       -34.176513672    
 2119-42-357     2493.0000000        2510.6977539       -17.697753906    
 2119-48-355     2494.0000000        2513.4123535       -19.412353516    
 2119-55-348     2502.0000000        2517.8818359       -15.881835938    
 2119-61-49      2485.0000000        2509.2033691       -24.203369141    
 2119-71-55      2505.0000000        2505.1105957      -0.11059570312    
 2119-71-365     2487.0000000        2508.0473633       -21.047363281    
 2184-33-274     2510.0000000        2529.1437988       -19.143798828    
 2179-33-26      2473.0000000        2498.5048828       -25.504882812    
 2179-48-337     2408.0000000        2507.9448242       -99.944824219    
 2179-56-20      2452.0000000        2511.2717285       -59.271728516    
 2179-66-28      2429.0000000        2497.9692383       -68.969238281    
 2297-42-355     2484.0000000        2537.7497559       -53.749755859    
 2297-48-336     2484.0000000        2544.9592285       -60.959228516    
 2297-56-20      2475.0000000        2549.3999023       -74.399902344    
 2297-61-54      2466.0000000        2539.9836426       -73.983642578    
 2297-66-21      2455.0000000        2530.1364746       -75.136474609    
 2297-71-41      2466.0000000        2529.4399414       -63.439941406    
 2185-42-357     2455.0000000        2491.3181152       -36.318115234    
 2185-48-355     2455.0000000        2497.1530762       -42.153076172    
 2185-55-347     2455.0000000        2502.6606445       -47.660644531    
 2185-66-45      2454.0000000        2487.6069336       -33.606933594    
 2185-71-344     2454.0000000        2489.2670898       -35.267089844    
 2134-16-361     2462.0000000        2474.1987305       -12.198730469    
 2134-22-32      2459.0000000        2476.4895020       -17.489501953    
 2134-27-11      2465.0000000        2478.8918457       -13.891845703    
 2134-48-357     2452.0000000        2483.6013184       -31.601318359    
 2134-55-347     2458.0000000        2487.9499512       -29.949951172    
 2134-66-45      2458.0000000        2477.3205566       -19.320556641    
 2134-71-344     2450.0000000        2478.4387207       -28.438720703    
 2091-61-55      2458.0000000        2464.5461426       -6.5461425781    
 2091-66-26      2475.0000000        2461.4807129        13.519287109    
 2091-71-55      2473.0000000        2460.1831055        12.816894531    
 2097-48-337     2447.0000000        2443.7299805        3.2700195312    
 2097-56-23      2454.0000000        2448.9326172        5.0673828125    
 2097-66-26      2455.0000000        2438.4147949        16.585205078    
 2097-71-55      2455.0000000        2437.4880371        17.511962891    
 2068-12-281     2453.0000000        2468.6958008       -15.695800781    
 2070-48-357     2440.0000000        2475.2543945       -35.254394531    
 2070-55-348     2456.0000000        2479.2919922       -23.291992188    
 2070-60-348     2441.0000000        2473.1372070       -32.137207031    
 2070-66-1       2451.0000000        2470.7812500       -19.781250000    
 2070-71-365     2433.0000000        2472.0688477       -39.068847656    
 2027-39-31      2345.0000000        2457.1628418       -112.16284180    
 2025-66-26      2299.0000000        2457.4243164       -158.42431641    
 2025-71-55      2304.0000000        2457.1650391       -153.16503906    
 2010-32-67      2364.0000000        2448.6267090       -84.626708984    
 1954-32-67      2376.0000000        2470.5039062       -94.503906250    
 1954-48-355     2305.0000000        2476.9038086       -171.90380859    
 1954-55-347     2293.0000000        2479.1320801       -186.13208008    
 1954-66-45      2266.0000000        2471.7155762       -205.71557617    
 1954-71-344     2283.0000000        2471.8669434       -188.86694336    
 1963-32-85      2370.0000000        2466.7812500       -96.781250000    
 1963-42-357     2326.0000000        2466.8542480       -140.85424805    
 1963-48-355     2304.0000000        2472.9624023       -168.96240234    
 1963-55-348     2291.0000000        2474.8896484       -183.88964844    
 1963-61-49      2274.0000000        2471.5100098       -197.51000977    
 1963-65-356     2263.0000000        2467.8315430       -204.83154297    
 1963-71-365     2282.0000000        2467.9819336       -185.98193359    
 2090-27-11      2485.0000000        2486.2709961       -1.2709960938    
 2065-66-45      2433.0000000        2491.5993652       -58.599365234    
 2065-71-365     2441.0000000        2491.4487305       -50.448730469    
 2003-71-365     2445.0000000        2491.1472168       -46.147216797    
 1984-42-355     2470.0000000        2490.2031250       -20.203125000    
 1984-48-336     2463.0000000        2496.5627441       -33.562744141    
 2116-65-350     2453.0000000        2508.6105957       -55.610595703    
 2047-56-19      2480.0000000        2508.1057129       -28.105712891    
 2047-61-55      2445.0000000        2503.4997559       -58.499755859    
 2047-66-21      2418.0000000        2501.3486328       -83.348632812    
 2044-56-19      2475.0000000        2501.7124023       -26.712402344    
 2044-61-55      2440.0000000        2498.8002930       -58.800292969    
 2044-66-21      2413.0000000        2496.3835449       -83.383544922    
 2044-71-41      2429.0000000        2493.5229492       -64.522949219    
 2018-34-212     2503.0000000        2500.2438965        2.7561035156    
 2012-1-52       2487.0000000        2487.4431152      -0.44311523438    
 2012-42-335     2470.0000000        2492.9189453       -22.918945312    
 2012-48-355     2465.0000000        2498.7910156       -33.791015625    
 2012-55-348     2470.0000000        2499.4702148       -29.470214844    
 2012-66-1       2417.0000000        2493.5703125       -76.570312500    
 2012-71-365     2440.0000000        2494.1496582       -54.149658203    
 1979-56-23      2478.0000000        2504.6115723       -26.611572266    
 1979-61-55      2438.0000000        2501.9687500       -63.968750000    
 2002-16-361     2488.0000000        2504.7814941       -16.781494141    
 2002-27-12      2490.0000000        2508.6225586       -18.622558594    
 1961-56-23      2472.0000000        2511.0620117       -39.062011719    
 1961-66-26      2406.0000000        2504.4626465       -98.462646484    
 1961-71-41      2420.0000000        2503.0185547       -83.018554688    
 2080-42-356     2511.0000000        2533.1049805       -22.104980469    
 2080-48-350     2506.0000000        2541.7512207       -35.751220703    
 2080-55-347     2504.0000000        2542.3056641       -38.305664062    
 2080-66-45      2465.0000000        2533.8488770       -68.848876953    
 2042-55-347     2498.0000000        2547.3073730       -49.307373047    
 2042-65-356     2451.0000000        2538.6916504       -87.691650391    
 2042-71-54      2447.0000000        2538.1533203       -91.153320312    
 2042-71-365     2454.0000000        2538.1513672       -84.151367188    
 1964-33-38      2501.0000000        2522.5895996       -21.589599609    
 1976-42-357     2465.0000000        2517.1828613       -52.182861328    
 1976-48-355     2503.0000000        2524.6166992       -21.616699219    
 1976-55-348     2474.0000000        2525.3684082       -51.368408203    
 1976-60-305     2439.0000000        2521.5405273       -82.540527344    
 1976-66-1       2402.0000000        2517.8430176       -115.84301758    
 1976-71-55      2414.0000000        2516.8393555       -102.83935547    
 1976-71-365     2424.0000000        2517.8894043       -93.889404297    
 1970-42-356     2502.0000000        2518.2202148       -16.220214844    
 1970-48-336     2495.0000000        2525.7177734       -30.717773438    
 1970-56-19      2505.0000000        2526.1982422       -21.198242188    
 2051-43-1       2503.0000000        2552.1398926       -49.139892578    
 2051-65-356     2450.0000000        2553.5754395       -103.57543945    
 2051-71-54      2447.0000000        2553.0053711       -106.00537109    
 2051-71-365     2451.0000000        2552.7626953       -101.76269531    
 1973-11-214     2529.0000000        2539.1159668       -10.115966797    
 1969-11-190     2517.0000000        2539.6782227       -22.678222656    
 1946-66-5       2443.0000000        2562.3273926       -119.32739258    
 1946-71-22      2447.0000000        2562.0231934       -115.02319336    
 1946-71-365     2456.0000000        2563.1801758       -107.18017578    
 1967-27-87      2542.0000000        2562.6357422       -20.635742188    
 1967-42-356     2502.0000000        2562.8937988       -60.893798828    
 1967-48-350     2494.0000000        2567.3410645       -73.341064453    
 1967-55-347     2495.0000000        2568.1848145       -73.184814453    
 1967-66-5       2444.0000000        2562.3676758       -118.36767578    
 1967-71-22      2446.0000000        2561.5600586       -115.56005859    
 1967-71-365     2454.0000000        2563.0546875       -109.05468750    
 1939-42-356     2504.0000000        2564.0246582       -60.024658203    
 1939-48-350     2495.0000000        2570.4409180       -75.440917969    
 1939-55-347     2497.0000000        2571.0507812       -74.050781250    
 1939-60-356     2480.0000000        2567.1562500       -87.156250000    
 1939-71-22      2448.0000000        2561.3652344       -113.36523438    
 1939-71-365     2457.0000000        2562.8820801       -105.88208008    
 1975-16-361     2581.0000000        2577.9877930        3.0122070312    
 1975-27-12      2580.0000000        2582.0368652       -2.0368652344    
 1945-56-25      2584.0000000        2582.3867188        1.6132812500    
 1945-61-54      2569.0000000        2579.0881348       -10.088134766    
 1945-66-27      2577.0000000        2577.9367676      -0.93676757812    
 1945-71-41      2576.0000000        2576.7858887      -0.78588867188    
 1711-42-352     1846.0000000        1904.3625488       -58.362548828    
 1711-48-350     1844.0000000        1913.5804443       -69.580444336    
 1711-55-354     1846.0000000        1921.8510742       -75.851074219    
 1711-61-21      1848.0000000        1927.7880859       -79.788085938    
 1711-66-39      1836.0000000        1956.0565186       -120.05651855    
 1711-71-7       1842.0000000        2034.2807617       -192.28076172    
 1711-71-365     1843.0000000        2047.7117920       -204.71179199    
 1555-27-24      1867.0000000        1882.2683105       -15.268310547    
 1555-31-348     1851.0000000        1887.5239258       -36.523925781    
 1555-37-341     1811.0000000        1897.8151855       -86.815185547    
 1555-48-348     1846.0000000        1914.1684570       -68.168457031    
 1555-56-27      1843.0000000        1922.3289795       -79.328979492    
 1555-60-319     1847.0000000        1927.9986572       -80.998657227    
 1555-65-301     1827.0000000        1955.9213867       -128.92138672    
 1555-71-11      1841.0000000        2042.0646973       -201.06469727    
 1555-71-365     1845.0000000        2055.4245605       -210.42456055    
 1428-11-1       1997.0000000        1889.5899658        107.41003418    
 1428-17-11      1983.0000000        1889.4123535        93.587646484    
 1428-22-12      1969.0000000        1891.0167236        77.983276367    
 1428-32-85      1946.0000000        1894.0051270        51.994873047    
 1383-1-106      2023.0000000        1892.1156006        130.88439941    
 1383-7-337      2024.0000000        1892.3001709        131.69982910    
 1383-12-361     2025.0000000        1891.7260742        133.27392578    
 1819-38-13      1884.0000000        1900.4853516       -16.485351562    
 1819-42-352     1885.0000000        1906.9360352       -21.936035156    
 1819-55-354     1873.0000000        1922.7080078       -49.708007812    
 1820-71-12      1977.0000000        2141.7053223       -164.70532227    
 1820-71-365     1948.0000000        2150.4226074       -202.42260742    
 1748-17-6       1946.0000000        1881.8707275        64.129272461    
 1748-21-335     1923.0000000        1882.0874023        40.912597656    
 1748-48-348     1881.0000000        1915.1574707       -34.157470703    
 1748-60-305     1887.0000000        1935.8354492       -48.835449219    
 1748-66-1       1901.0000000        1996.0732422       -95.073242188    
 1748-71-8       1952.0000000        2104.6562500       -152.65625000    
 1748-71-365     1953.0000000        2116.1083984       -163.10839844    
 1903-71-365     1926.0000000        2136.3479004       -210.34790039    
 1862-71-365     1905.0000000        2136.6672363       -231.66723633    
 1861-65-364     1916.0000000        2032.3636475       -116.36364746    
 1861-71-365     1952.0000000        2157.3664551       -205.36645508    
 1833-71-365     1934.0000000        2103.7502441       -169.75024414    
 1770-71-365     1954.0000000        2112.5124512       -158.51245117    
 1758-71-365     1924.0000000        2142.6699219       -218.66992188    
 1709-22-38      1907.0000000        1881.4119873        25.588012695    
 1709-42-352     1881.0000000        1909.1531982       -28.153198242    
 1709-55-354     1871.0000000        1924.0241699       -53.024169922    
 1709-65-344     1908.0000000        2000.8663330       -92.866333008    
 1709-71-365     1954.0000000        2122.5327148       -168.53271484    
 1700-71-365     1954.0000000        2112.4675293       -158.46752930    
 1828-71-365     1954.0000000        2111.3137207       -157.31372070    
 1698-71-365     1984.0000000        2119.9826660       -135.98266602    
 1883-65-336     1858.0000000        1976.2745361       -118.27453613    
 1883-71-365     1882.0000000        2082.2255859       -200.22558594    
 1838-71-365     1856.0000000        2071.1008301       -215.10083008    
 1805-71-365     1842.0000000        2074.4567871       -232.45678711    
 1702-16-354     1930.0000000        1879.7086182        50.291381836    
 1702-42-352     1867.0000000        1908.3507080       -41.350708008    
 1702-48-349     1865.0000000        1916.5577393       -51.557739258    
 1702-55-354     1861.0000000        1923.7225342       -62.722534180    
 1702-61-31      1873.0000000        1932.5582275       -59.558227539    
 1702-65-344     1835.0000000        1972.0631104       -137.06311035    
 1702-71-365     1869.0000000        2086.3327637       -217.33276367    
 1704-71-365     1865.0000000        2074.7758789       -209.77587891    
 1829-71-365     1888.0000000        2086.8325195       -198.83251953    
 1710-17-6       1935.0000000        1880.3577881        54.642211914    
 1710-42-352     1874.0000000        1908.2438965       -34.243896484    
 1710-48-349     1871.0000000        1916.3886719       -45.388671875    
 1710-55-354     1867.0000000        1923.6398926       -56.639892578    
 1710-61-31      1882.0000000        1934.5347900       -52.534790039    
 1710-65-344     1849.0000000        1978.7233887       -129.72338867    
 1710-71-365     1891.0000000        2088.2016602       -197.20166016    
 1703-71-365     1899.0000000        2108.6762695       -209.67626953    
 1663-12-305     1964.0000000        1880.3706055        83.629394531    
 1663-42-352     1877.0000000        1908.4632568       -31.463256836    
 1663-48-349     1873.0000000        1916.5125732       -43.512573242    
 1663-55-354     1869.0000000        1923.6901855       -54.690185547    
 1663-61-31      1880.0000000        1934.1862793       -54.186279297    
 1663-65-338     1844.0000000        1977.2312012       -133.23120117    
 1663-71-365     1891.0000000        2087.4367676       -196.43676758    
 1667-71-365     1888.0000000        2084.3474121       -196.34741211    
 1686-71-365     1980.0000000        2122.1181641       -142.11816406    
 1653-71-365     2007.0000000        2173.1977539       -166.19775391    
 1634-71-365     1985.0000000        2116.0800781       -131.08007812    
 1637-71-365     1997.0000000        2119.3483887       -122.34838867    
 1635-71-365     1936.0000000        2104.1828613       -168.18286133    
 1584-17-6       1957.0000000        1884.5610352        72.438964844    
 1584-22-38      1934.0000000        1884.7105713        49.289428711    
 1584-27-27      1919.0000000        1886.8129883        32.187011719    
 1584-32-85      1896.0000000        1892.5435791        3.4564208984    
 1584-37-34      1893.0000000        1899.6751709       -6.6751708984    
 1584-42-352     1904.0000000        1909.1666260       -5.1666259766    
 1584-48-348     1898.0000000        1916.7088623       -18.708862305    
 1584-55-354     1891.0000000        1923.7749023       -32.774902344    
 1584-60-323     1899.0000000        1934.8690186       -35.869018555    
 1584-65-344     1892.0000000        1983.3317871       -91.331787109    
 1584-71-365     1958.0000000        2101.0202637       -143.02026367    
 1585-71-365     1953.0000000        2107.8447266       -154.84472656    
 1592-71-365     1979.0000000        2134.3535156       -155.35351562    
 1591-71-365     1992.0000000        2138.2575684       -146.25756836    
 1590-71-365     1994.0000000        2109.2246094       -115.22460938    
 1650-71-365     1967.0000000        2141.4577637       -174.45776367    
 1684-48-275     1902.0000000        1915.3041992       -13.304199219    
 1684-66-20      1899.0000000        1972.5089111       -73.508911133    
 1685-48-275     1902.0000000        1915.3041992       -13.304199219    
 1685-66-20      1896.0000000        1972.5089111       -76.508911133    
 1496-21-355     1982.0000000        1893.2860107        88.713989258    
 1496-27-27      1971.0000000        1893.9974365        77.002563477    
 1496-32-85      1959.0000000        1896.1940918        62.805908203    
 1496-36-91      1953.0000000        1900.6296387        52.370361328    
 1496-56-19      1930.0000000        1922.9508057        7.0491943359    
 1491-56-19      1932.0000000        1922.9539795        9.0460205078    
 1501-16-309     2004.0000000        1898.3947754        105.60522461    
 1497-48-300     1940.0000000        1917.3498535        22.650146484    
 1497-55-318     1931.0000000        1922.9191895        8.0808105469    
 1497-60-313     1916.0000000        1925.8092041       -9.8092041016    
 1497-65-364     1898.0000000        1944.0526123       -46.052612305    
 1497-71-350     1941.0000000        2021.8249512       -80.824951172    
 1498-48-300     1941.0000000        1917.2203369        23.779663086    
 1498-55-318     1930.0000000        1922.8698730        7.1301269531    
 1498-60-313     1917.0000000        1925.5998535       -8.5998535156    
 1498-65-364     1898.0000000        1943.1469727       -45.146972656    
 1498-71-350     1942.0000000        2019.7456055       -77.745605469    
 1442-36-1       1957.0000000        1900.8869629        56.113037109    
 1442-42-349     1941.0000000        1913.1588135        27.841186523    
 1442-48-349     1933.0000000        1918.9677734        14.032226562    
 1442-55-353     1923.0000000        1923.4973145      -0.49731445312    
 1442-61-21      1907.0000000        1928.1914062       -21.191406250    
 1473-10-213     2021.0000000        1897.1080322        123.89196777    
 1407-22-38      1991.0000000        1894.2344971        96.765502930    
 1407-42-349     1957.0000000        1920.1732178        36.826782227    
 1407-48-349     1949.0000000        1923.6331787        25.366821289    
 1407-55-353     1937.0000000        1923.6461182        13.353881836    
 1407-61-21      1916.0000000        1925.8767090       -9.8767089844    
 1407-66-34      1900.0000000        1939.8509521       -39.850952148    
 1407-71-365     1990.0000000        2020.7457275       -30.745727539    
 1412-71-365     1993.0000000        2020.9722900       -27.972290039    
 1393-38-335     1974.0000000        1910.7065430        63.293457031    
 1393-42-349     1957.0000000        1916.7202148        40.279785156    
 1393-48-349     1950.0000000        1921.4504395        28.549560547    
 1393-55-353     1938.0000000        1924.1068115        13.893188477    
 1393-71-365     2034.0000000        2051.3083496       -17.308349609    
 1376-36-78      1988.0000000        1905.8012695        82.198730469    
 1376-48-349     1957.0000000        1922.3596191        34.640380859    
 1376-61-21      1921.0000000        1926.5633545       -5.5633544922    
 1376-66-34      1905.0000000        1939.9222412       -34.922241211    
 1376-71-56      1990.0000000        2009.6118164       -19.611816406    
 1376-71-365     2019.0000000        2035.9445801       -16.944580078    
 1361-71-362     1995.0000000        2004.2263184       -9.2263183594    
 1362-71-362     1995.0000000        2004.2263184       -9.2263183594    
 1421-71-362     2025.0000000        2099.9580078       -74.958007812    
 1403-66-34      1900.0000000        1947.5124512       -47.512451172    
 1403-71-56      1997.0000000        2029.1435547       -32.143554688    
 1403-71-365     2031.0000000        2056.8703613       -25.870361328    
 1388-71-362     2044.0000000        2090.2583008       -46.258300781    
 1364-17-12      2001.0000000        1894.9464111        106.05358887    
 1364-38-335     1980.0000000        1914.7764893        65.223510742    
 1364-42-349     1961.0000000        1920.2175293        40.782470703    
 1364-55-353     1942.0000000        1924.7117920        17.288208008    
 1364-66-34      1904.0000000        1939.6253662       -35.625366211    
 1364-71-365     2054.0000000        2106.8474121       -52.847412109    
 1365-17-12      2006.0000000        1894.5791016        111.42089844    
 1365-22-6       1999.0000000        1894.8389893        104.16101074    
 1365-27-27      1992.0000000        1896.2371826        95.762817383    
 1365-32-85      1986.0000000        1901.2192383        84.780761719    
 1365-37-17      1983.0000000        1907.2064209        75.793579102    
 1365-42-349     1965.0000000        1917.2073975        47.792602539    
 1365-48-349     1959.0000000        1922.1041260        36.895874023    
 1365-55-353     1948.0000000        1924.6586914        23.341308594    
 1365-60-364     1925.0000000        1927.4877930       -2.4877929688    
 1365-66-1       1907.0000000        1940.7724609       -33.772460938    
 1365-71-365     2045.0000000        2064.5959473       -19.595947266    
 1335-71-362     2054.0000000        2104.1213379       -50.121337891    
 1313-36-114     1987.0000000        1907.7875977        79.212402344    
 1313-42-349     1974.0000000        1918.8702393        55.129760742    
 1313-48-349     1966.0000000        1923.1466064        42.853393555    
 1313-55-353     1953.0000000        1925.1718750        27.828125000    
 1313-61-21      1922.0000000        1927.4758301       -5.4758300781    
 1313-66-13      1906.0000000        1938.5570068       -32.557006836    
 1266-17-12      2022.0000000        1898.2353516        123.76464844    
 1266-38-335     2003.0000000        1915.1965332        87.803466797    
 1266-42-349     1987.0000000        1920.0520020        66.947998047    
 1266-48-349     1980.0000000        1923.9307861        56.069213867    
 1266-56-3       1967.0000000        1925.8004150        41.199584961    
 1266-61-21      1938.0000000        1927.5524902        10.447509766    
 1266-66-12      1922.0000000        1936.4206543       -14.420654297    
 1266-71-56      2000.0000000        2008.8616943       -8.8616943359    
 1266-71-365     2050.0000000        2055.3105469       -5.3105468750    
 1258-71-362     2050.0000000        2042.7919922        7.2080078125    
 1265-17-12      2015.0000000        1898.3518066        116.64819336    
 1265-38-335     2003.0000000        1916.7059326        86.294067383    
 1265-42-349     1982.0000000        1921.2578125        60.742187500    
 1265-48-349     1975.0000000        1924.9511719        50.048828125    
 1265-55-353     1961.0000000        1925.6145020        35.385498047    
 1265-66-34      1917.0000000        1936.4249268       -19.424926758    
 1265-71-56      1998.0000000        2009.8283691       -11.828369141    
 1265-71-365     2040.0000000        2043.0964355       -3.0964355469    
 1336-17-12      2021.0000000        1896.9924316        124.00756836    
 1336-38-335     1988.0000000        1914.0446777        73.955322266    
 1336-42-349     1974.0000000        1919.8266602        54.173339844    
 1336-48-349     1965.0000000        1923.1143799        41.885620117    
 1336-55-353     1959.0000000        1924.3972168        34.602783203    
 1336-71-40      1955.0000000        1985.0207520       -30.020751953    
 1336-71-365     1999.0000000        2010.6352539       -11.635253906    
 1337-42-349     1965.0000000        1921.6397705        43.360229492    
 1337-55-353     1947.0000000        1924.8397217        22.160278320    
 1337-66-27      1901.0000000        1937.6737061       -36.673706055    
 1337-71-365     2033.0000000        2076.9418945       -43.941894531    
 1340-36-38      1989.0000000        1906.6483154        82.351684570    
 1340-42-349     1969.0000000        1918.9815674        50.018432617    
 1340-48-349     1961.0000000        1923.0509033        37.949096680    
 1340-55-353     1948.0000000        1924.7109375        23.289062500    
 1340-66-10      1902.0000000        1939.0489502       -37.048950195    
 1340-71-56      2011.0000000        2015.6834717       -4.6834716797    
 1340-71-365     2033.0000000        2047.4829102       -14.482910156    
 1264-38-335     2000.0000000        1917.0675049        82.932495117    
 1264-42-349     1981.0000000        1921.5335693        59.466430664    
 1264-71-70      1982.0000000        2000.4072266       -18.407226562    
 1264-71-365     2018.0000000        2029.4304199       -11.430419922    
 1257-66-33      1916.0000000        1936.1634521       -20.163452148    
 1257-71-56      1959.0000000        1986.1995850       -27.199584961    
 1257-71-365     1994.0000000        2009.3333740       -15.333374023    
 1371-56-31      1966.0000000        1923.1370850        42.862915039    
 1371-66-56      1937.0000000        1933.5655518        3.4344482422    
 1371-71-50      1934.0000000        1958.9407959       -24.940795898    
 1371-71-365     1940.0000000        1968.3414307       -28.341430664    
 1370-34-198     2015.0000000        1902.9031982        112.09680176    
 1370-56-31      1974.0000000        1923.0102539        50.989746094    
 1370-66-56      1951.0000000        1932.6312256        18.368774414    
 1370-71-50      1943.0000000        1955.4892578       -12.489257812    
 1370-71-365     1945.0000000        1963.9465332       -18.946533203    
 1849-12-32      2295.0000000        2339.2719727       -44.271972656    
 1849-17-34      2282.0000000        2340.5520020       -58.552001953    
 1849-22-1       2276.0000000        2340.2895508       -64.289550781    
 1847-48-362     2218.0000000        2346.8227539       -128.82275391    
 1847-56-34      2197.0000000        2347.5097656       -150.50976562    
 1847-61-3       2185.0000000        2344.2690430       -159.26904297    
 1847-66-1       2178.0000000        2342.0783691       -164.07836914    
 1847-71-56      2177.0000000        2342.7854004       -165.78540039    
 1847-71-365     2179.0000000        2342.9321289       -163.93212891    
 1742-1-365      2295.0000000        2321.1936035       -26.193603516    
 1741-1-365      2294.0000000        2322.7414551       -28.741455078    
 1766-1-365      2333.0000000        2324.8156738        8.1843261719    
 1848-56-34      2194.0000000        2318.9433594       -124.94335938    
 1848-65-336     2176.0000000        2314.4392090       -138.43920898    
 1848-71-365     2172.0000000        2317.0146484       -145.01464844    
 1901-2-36       2292.0000000        2302.2844238       -10.284423828    
 1912-1-365      2284.0000000        2299.2458496       -15.245849609    
 1929-1-365      2283.0000000        2298.1193848       -15.119384766    
 1902-1-365      2282.0000000        2300.3461914       -18.346191406    
 1872-71-68      2168.0000000        2310.7915039       -142.79150391    
 1872-71-365     2169.0000000        2311.5881348       -142.58813477    
 1871-56-34      2185.0000000        2312.8444824       -127.84448242    
 1832-17-37      2250.0000000        2312.3051758       -62.305175781    
 1832-22-1       2238.0000000        2310.4794922       -72.479492188    
 1832-32-49      2224.0000000        2311.7434082       -87.743408203    
 1832-42-362     2198.0000000        2311.4682617       -113.46826172    
 1832-48-362     2207.0000000        2313.5439453       -106.54394531    
 1832-56-34      2189.0000000        2314.9860840       -125.98608398    
 1832-61-3       2179.0000000        2312.1889648       -133.18896484    
 1832-71-21      2168.0000000        2312.5458984       -144.54589844    
 1832-71-365     2168.0000000        2313.3688965       -145.36889648    
 1767-27-40      2263.0000000        2320.4645996       -57.464599609    
 1767-42-363     2207.0000000        2319.2514648       -112.25146484    
 1767-56-34      2199.0000000        2322.8547363       -123.85473633    
 1818-65-336     2171.0000000        2313.4965820       -142.49658203    
 1804-71-76      2169.0000000        2315.6105957       -146.61059570    
 1804-71-365     2168.0000000        2316.3684082       -148.36840820    
 1793-42-362     2203.0000000        2316.8686523       -113.86865234    
 1793-48-334     2211.0000000        2319.2971191       -108.29711914    
 1793-56-34      2196.0000000        2320.3010254       -124.30102539    
 1793-65-336     2179.0000000        2315.8842773       -136.88427734    
 1793-71-21      2174.0000000        2317.1599121       -143.15991211    
 1793-71-365     2173.0000000        2318.0632324       -145.06323242    
 1891-1-365      2278.0000000        2297.9465332       -19.946533203    
 1891-11-38      2260.0000000        2298.7414551       -38.741455078    
 1891-17-37      2237.0000000        2300.9575195       -63.957519531    
 1690-32-32      2242.0000000        2330.2883301       -88.288330078    
 1690-34-32      2237.0000000        2329.3579102       -92.357910156    
 1690-42-362     2216.0000000        2330.5617676       -114.56176758    
 1690-48-362     2222.0000000        2333.7856445       -111.78564453    
 1690-56-34      2207.0000000        2334.2778320       -127.27783203    
 1690-61-3       2187.0000000        2330.5920410       -143.59204102    
 1690-71-21      2185.0000000        2329.5292969       -144.52929688    
 1690-71-365     2186.0000000        2330.6721191       -144.67211914    
 1697-56-34      2201.0000000        2329.2512207       -128.25122070    
 1697-65-336     2184.0000000        2324.0305176       -140.03051758    
 1697-71-21      2181.0000000        2325.0209961       -144.02099609    
 1697-71-365     2181.0000000        2326.0339355       -145.03393555    
 1638-22-30      2262.0000000        2337.3173828       -75.317382812    
 1638-27-48      2252.0000000        2340.1406250       -88.140625000    
 1638-32-49      2248.0000000        2338.5190430       -90.519042969    
 1638-37-49      2231.0000000        2336.0419922       -105.04199219    
 1638-42-363     2220.0000000        2339.0529785       -119.05297852    
 1642-1-365      2316.0000000        2340.5437012       -24.543701172    
 1642-8-48       2310.0000000        2342.4948730       -32.494873047    
 1626-1-365      2317.0000000        2348.8769531       -31.876953125    
 1625-26-349     2281.0000000        2357.7038574       -76.703857422    
 1625-32-49      2274.0000000        2357.3134766       -83.313476562    
 1625-42-362     2244.0000000        2357.7800293       -113.78002930    
 1625-48-362     2241.0000000        2362.5075684       -121.50756836    
 1625-56-34      2226.0000000        2362.0732422       -136.07324219    
 1625-61-3       2218.0000000        2357.6010742       -139.60107422    
 1508-12-54      2335.0000000        2365.1225586       -30.122558594    
 1508-17-33      2334.0000000        2369.2104492       -35.210449219    
 1508-22-26      2330.0000000        2366.1315918       -36.131591797    
 1508-27-15      2332.0000000        2369.2839355       -37.283935547    
 1508-32-49      2321.0000000        2367.4096680       -46.409667969    
 1508-43-5       2280.0000000        2368.6809082       -88.680908203    
 1508-48-364     2290.0000000        2374.6979980       -84.697998047    
 1508-56-34      2275.0000000        2373.0341797       -98.034179688    
 1508-61-3       2245.0000000        2366.0969238       -121.09692383    
 1508-71-49      2245.0000000        2363.8188477       -118.81884766    
 1508-71-365     2249.0000000        2364.3928223       -115.39282227    
 1479-43-5       2283.0000000        2380.2421875       -97.242187500    
 1479-48-364     2295.0000000        2387.5461426       -92.546142578    
 1479-56-34      2280.0000000        2384.7939453       -104.79394531    
 1479-60-363     2247.0000000        2375.8935547       -128.89355469    
 1479-71-70      2249.0000000        2373.4169922       -124.41699219    
 1479-71-365     2251.0000000        2373.9914551       -122.99145508    
 1462-42-364     2289.0000000        2385.6491699       -96.649169922    
 1462-48-334     2293.0000000        2393.5878906       -100.58789062    
 1462-56-16      2279.0000000        2390.3879395       -111.38793945    
 1468-1-365      2357.0000000        2376.0244141       -19.024414062    
 1471-11-278     2346.0000000        2379.1501465       -33.150146484    
 1471-17-33      2344.0000000        2385.0783691       -41.078369141    
 1471-22-26      2339.0000000        2380.2868652       -41.286865234    
 1471-26-349     2333.0000000        2384.2282715       -51.228271484    
 1471-43-5       2284.0000000        2382.5241699       -98.524169922    
 1471-48-364     2296.0000000        2390.1557617       -94.155761719    
 1471-65-336     2241.0000000        2375.2319336       -134.23193359    
 1471-71-70      2248.0000000        2375.2373047       -127.23730469    
 1471-71-365     2250.0000000        2375.8806152       -125.88061523    
 1461-12-54      2348.0000000        2388.5412598       -40.541259766    
 1461-17-44      2340.0000000        2391.5539551       -51.553955078    
 1461-22-30      2330.0000000        2390.2351074       -60.235107422    
 1461-27-59      2319.0000000        2392.5349121       -73.534912109    
 1461-42-363     2295.0000000        2393.3254395       -98.325439453    
 1461-48-336     2311.0000000        2399.6440430       -88.644042969    
 1461-56-34      2299.0000000        2397.2458496       -98.245849609    
 1461-60-363     2271.0000000        2390.9653320       -119.96533203    
 1461-66-59      2274.0000000        2388.8002930       -114.80029297    
 1461-71-70      2283.0000000        2388.3059082       -105.30590820    
 1461-71-365     2287.0000000        2388.3583984       -101.35839844    
 1387-42-362     2292.0000000        2409.3640137       -117.36401367    
 1387-49-2       2310.0000000        2417.1621094       -107.16210938    
 1387-56-33      2280.0000000        2413.2988281       -133.29882812    
 1387-60-363     2244.0000000        2404.1037598       -160.10375977    
 1387-66-59      2240.0000000        2401.7978516       -161.79785156    
 1387-71-70      2252.0000000        2401.3925781       -149.39257812    
 1387-71-365     2256.0000000        2401.6445312       -145.64453125    
 1391-17-41      2368.0000000        2408.4067383       -40.406738281    
 1391-22-31      2358.0000000        2407.1364746       -49.136474609    
 1391-42-362     2310.0000000        2410.3129883       -100.31298828    
 1391-48-338     2314.0000000        2417.3471680       -103.34716797    
 1391-56-16      2281.0000000        2413.9465332       -132.94653320    
 1391-61-59      2260.0000000        2406.5017090       -146.50170898    
 1391-66-27      2277.0000000        2404.3603516       -127.36035156    
 1391-71-56      2263.0000000        2403.7353516       -140.73535156    
 1386-17-41      2369.0000000        2408.7563477       -39.756347656    
 1386-22-31      2358.0000000        2407.4350586       -49.435058594    
 1386-42-362     2292.0000000        2410.5832520       -118.58325195    
 1386-48-337     2298.0000000        2417.6643066       -119.66430664    
 1386-56-16      2296.0000000        2414.2231445       -118.22314453    
 1398-48-335     2302.0000000        2417.9340820       -115.93408203    
 1401-2-1        2373.0000000        2395.6774902       -22.677490234    
 1401-12-53      2358.0000000        2399.2954102       -41.295410156    
 1401-17-60      2362.0000000        2405.6989746       -43.698974609    
 1401-22-26      2353.0000000        2401.3654785       -48.365478516    
 1427-17-39      2358.0000000        2400.9902344       -42.990234375    
 1427-22-31      2350.0000000        2395.8103027       -45.810302734    
 1427-42-362     2293.0000000        2397.7438965       -104.74389648    
 1427-48-364     2305.0000000        2406.1425781       -101.14257812    
 1427-56-33      2285.0000000        2402.1149902       -117.11499023    
 1378-42-364     2285.0000000        2411.9003906       -126.90039062    
 1400-1-32       2376.0000000        2396.0751953       -20.075195312    
 1400-12-53      2361.0000000        2399.6804199       -38.680419922    
 1400-17-60      2364.0000000        2406.0732422       -42.073242188    
 1400-22-26      2355.0000000        2401.7551270       -46.755126953    
 1400-27-48      2349.0000000        2405.5153809       -56.515380859    
 1400-36-3       2310.0000000        2399.6437988       -89.643798828    
 1400-43-5       2292.0000000        2403.7062988       -111.70629883    
 1400-48-364     2307.0000000        2412.0244141       -105.02441406    
 1400-56-33      2284.0000000        2407.9455566       -123.94555664    
 1400-60-363     2248.0000000        2397.9321289       -149.93212891    
 1400-71-365     2259.0000000        2395.8479004       -136.84790039    
 1405-7-308      2360.0000000        2398.2478027       -38.247802734    
 1405-10-34      2359.0000000        2397.8811035       -38.881103516    
 1405-43-5       2287.0000000        2403.7404785       -116.74047852    
 1405-48-364     2301.0000000        2412.2487793       -111.24877930    
 1405-56-33      2278.0000000        2407.9931641       -129.99316406    
 1405-66-13      2235.0000000        2395.1469727       -160.14697266    
 1405-71-365     2252.0000000        2395.6232910       -143.62329102    
 1349-17-41      2357.0000000        2429.2414551       -72.241455078    
 1349-22-30      2345.0000000        2423.3481445       -78.348144531    
 1329-1-274      2381.0000000        2421.0722656       -40.072265625    
 1329-17-41      2368.0000000        2433.9584961       -65.958496094    
 1329-22-31      2357.0000000        2428.0795898       -71.079589844    
 1329-42-364     2285.0000000        2428.6975098       -143.69750977    
 1329-56-16      2275.0000000        2432.1875000       -157.18750000    
 1329-66-26      2245.0000000        2419.7441406       -174.74414062    
 1282-1-277      2407.0000000        2425.2893066       -18.289306641    
 1283-1-309      2387.0000000        2425.7258301       -38.725830078    
 1283-6-340      2379.0000000        2427.7272949       -48.727294922    
 1283-11-350     2372.0000000        2429.4121094       -57.412109375    
 1283-16-301     2369.0000000        2438.2246094       -69.224609375    
 1283-22-30      2361.0000000        2432.7653809       -71.765380859    
 1283-27-10      2352.0000000        2434.4316406       -82.431640625    
 1283-35-345     2312.0000000        2430.0598145       -118.05981445    
 1274-6-288      2376.0000000        2427.3037109       -51.303710938    
 1274-12-54      2369.0000000        2428.9455566       -59.945556641    
 1274-17-41      2373.0000000        2438.0673828       -65.067382812    
 1274-22-30      2360.0000000        2432.5539551       -72.553955078    
 1356-43-1       2285.0000000        2418.4345703       -133.43457031    
 1347-66-49      2241.0000000        2412.2426758       -171.24267578    
 1345-55-350     2281.0000000        2424.3652344       -143.36523438    
 1345-61-33      2244.0000000        2414.4904785       -170.49047852    
 1345-66-49      2241.0000000        2412.1264648       -171.12646484    
 1345-71-68      2252.0000000        2411.7592773       -159.75927734    
 1345-71-365     2257.0000000        2411.7658691       -154.76586914    
 1321-12-57      2369.0000000        2420.4633789       -51.463378906    
 1321-17-41      2374.0000000        2427.0998535       -53.099853516    
 1321-22-27      2361.0000000        2423.2504883       -62.250488281    
 1321-27-51      2354.0000000        2425.6259766       -71.625976562    
 1360-56-34      2271.0000000        2421.3505859       -150.35058594    
 1360-60-362     2240.0000000        2411.2512207       -171.25122070    
 1360-65-348     2229.0000000        2408.8745117       -179.87451172    
 1360-71-48      2243.0000000        2408.6914062       -165.69140625    
 1360-71-365     2248.0000000        2409.2609863       -161.26098633    
 1328-1-277      2386.0000000        2417.9370117       -31.937011719    
 1328-6-295      2377.0000000        2419.4699707       -42.469970703    
 1306-11-41      2364.0000000        2422.4157715       -58.415771484    
 1306-17-41      2368.0000000        2430.4499512       -62.449951172    
 1306-22-27      2356.0000000        2425.7634277       -69.763427734    
 1306-43-5       2286.0000000        2426.9379883       -140.93798828    
 1306-48-364     2304.0000000        2435.0693359       -131.06933594    
 1306-56-33      2272.0000000        2430.3171387       -158.31713867    
 1306-60-363     2238.0000000        2420.5285645       -182.52856445    
 1306-66-6       2234.0000000        2418.2514648       -184.25146484    
 1306-71-60      2246.0000000        2418.0373535       -172.03735352    
 1306-71-365     2252.0000000        2418.4838867       -166.48388672    
 1307-1-274      2386.0000000        2419.4870605       -33.487060547    
 1307-11-41      2369.0000000        2422.8010254       -53.801025391    
 1307-17-41      2375.0000000        2431.1164551       -56.116455078    
 1307-22-27      2362.0000000        2426.0793457       -64.079345703    
 1307-26-349     2350.0000000        2428.4714355       -78.471435547    
 1307-48-364     2309.0000000        2435.2145996       -126.21459961    
 1307-56-33      2279.0000000        2430.3767090       -151.37670898    
 1307-71-60      2253.0000000        2418.0705566       -165.07055664    
 1307-71-365     2258.0000000        2418.5661621       -160.56616211    
 1304-1-274      2381.0000000        2421.2189941       -40.218994141    
 1304-11-41      2365.0000000        2424.5253906       -59.525390625    
 1304-17-32      2370.0000000        2433.0458984       -63.045898438    
 1304-22-27      2354.0000000        2427.8576660       -73.857666016    
 1304-26-302     2340.0000000        2430.0375977       -90.037597656    
 1304-48-364     2301.0000000        2436.8215332       -135.82153320    
 1304-56-33      2270.0000000        2431.9484863       -161.94848633    
 1304-60-356     2235.0000000        2422.1782227       -187.17822266    
 1304-71-60      2244.0000000        2419.7836914       -175.78369141    
 1281-12-54      2373.0000000        2428.1584473       -55.158447266    
 1281-17-41      2377.0000000        2437.1303711       -60.130371094    
 1281-22-30      2365.0000000        2431.7189941       -66.718994141    
 1281-32-50      2343.0000000        2431.3420410       -88.342041016    
 1281-37-49      2314.0000000        2428.3461914       -114.34619141    
 1292-1-274      2389.0000000        2423.6186523       -34.618652344    
 1292-17-46      2376.0000000        2435.3051758       -59.305175781    
 1292-22-27      2363.0000000        2430.3273926       -67.327392578    
 1292-26-349     2351.0000000        2432.4323730       -81.432373047    
 1292-43-5       2291.0000000        2431.0544434       -140.05444336    
 1292-48-364     2311.0000000        2439.1130371       -128.11303711    
 1272-1-60       2392.0000000        2425.3979492       -33.397949219    
 1272-7-176      2374.0000000        2427.4169922       -53.416992188    
 1272-60-363     2245.0000000        2426.2377930       -181.23779297    
 1272-65-348     2241.0000000        2424.0676270       -183.06762695    
 1272-71-365     2258.0000000        2424.4091797       -166.40917969    
 1298-42-362     2292.0000000        2428.3208008       -136.32080078    
 1298-56-10      2279.0000000        2431.8122559       -152.81225586    
 1298-60-363     2244.0000000        2422.2131348       -178.21313477    
 1298-66-13      2240.0000000        2419.9804688       -179.98046875    
 1298-71-365     2257.0000000        2419.9707031       -162.97070312    
 1299-56-10      2280.0000000        2432.2438965       -152.24389648    
 1299-66-13      2240.0000000        2420.1367188       -180.13671875    
 1299-71-365     2255.0000000        2420.2416992       -165.24169922    
 1294-43-5       2283.0000000        2429.7399902       -146.73999023    
 1294-48-364     2302.0000000        2437.7858887       -135.78588867    
 1294-56-10      2272.0000000        2433.2419434       -161.24194336    
 1294-60-363     2237.0000000        2423.3596191       -186.35961914    
 1294-66-13      2233.0000000        2421.1369629       -188.13696289    
 1294-71-365     2251.0000000        2421.2990723       -170.29907227    
 1296-71-60      2249.0000000        2420.6486816       -171.64868164    
 1288-56-10      2281.0000000        2433.7604980       -152.76049805    
 1288-66-13      2242.0000000        2421.6809082       -179.68090820    
 1288-71-41      2251.0000000        2421.3964844       -170.39648438    
 1288-71-365     2257.0000000        2421.8349609       -164.83496094    
 1285-60-361     2244.0000000        2425.1088867       -181.10888672    
 1285-71-365     2257.0000000        2422.9050293       -165.90502930    
 1291-60-361     2243.0000000        2423.8833008       -180.88330078    
 1291-71-365     2257.0000000        2421.7473145       -164.74731445    
 1287-60-361     2245.0000000        2424.2028809       -179.20288086    
 1287-71-365     2258.0000000        2422.0512695       -164.05126953    
 1342-71-62      2342.0000000        2416.5290527       -74.529052734    
 1342-71-365     2341.0000000        2416.5515137       -75.551513672    
 1346-11-40      2376.0000000        2416.0539551       -40.053955078    
 1346-17-44      2376.0000000        2421.7426758       -45.742675781    
 1346-22-27      2364.0000000        2419.3920898       -55.392089844    
 1346-27-59      2357.0000000        2421.4729004       -64.472900391    
 1346-32-50      2357.0000000        2420.2861328       -63.286132812    
 1346-42-362     2298.0000000        2421.8496094       -123.84960938    
 1346-48-357     2313.0000000        2429.5737305       -116.57373047    
 1346-56-32      2285.0000000        2425.3134766       -140.31347656    
 1346-60-363     2302.0000000        2416.5173340       -114.51733398    
 1346-71-62      2262.0000000        2413.7460938       -151.74609375    
 1346-71-365     2268.0000000        2413.8803711       -145.88037109    
 1351-71-62      2310.0000000        2413.3649902       -103.36499023    
 1351-71-365     2310.0000000        2413.4716797       -103.47167969    
 1305-12-57      2382.0000000        2423.8857422       -41.885742188    
 1305-17-46      2384.0000000        2429.2978516       -45.297851562    
 1305-22-27      2366.0000000        2426.7304688       -60.730468750    
 1305-42-362     2294.0000000        2428.7873535       -134.78735352    
 1305-48-357     2312.0000000        2436.5710449       -124.57104492    
 1305-55-357     2285.0000000        2432.3183594       -147.31835938    
 1305-60-342     2251.0000000        2423.1284180       -172.12841797    
 1305-66-59      2248.0000000        2420.8044434       -172.80444336    
 1305-71-20      2255.0000000        2420.4111328       -165.41113281    
 1305-71-365     2261.0000000        2420.5620117       -159.56201172    
 1286-1-91       2419.0000000        2423.5527344       -4.5527343750    
 1284-60-361     2246.0000000        2425.6994629       -179.69946289    
 1284-65-356     2240.0000000        2423.5034180       -183.50341797    
 1284-71-365     2258.0000000        2423.4311523       -165.43115234    
 1271-42-362     2294.0000000        2433.6447754       -139.64477539    
 1271-56-10      2284.0000000        2436.8884277       -152.88842773    
 1271-60-363     2250.0000000        2427.6066895       -177.60668945    
 1271-66-13      2244.0000000        2425.4245605       -181.42456055    
 1271-71-62      2255.0000000        2425.0869141       -170.08691406    
 1271-71-365     2259.0000000        2425.3569336       -166.35693359    
 1293-56-10      2282.0000000        2433.7675781       -151.76757812    
 1293-66-13      2243.0000000        2422.0639648       -179.06396484    
 1293-71-47      2251.0000000        2421.6894531       -170.68945312    
 1293-71-365     2257.0000000        2421.9484863       -164.94848633    
 1898-10-252     2397.0000000        2435.8146973       -38.814697266    
 1873-10-252     2394.0000000        2433.2348633       -39.234863281    
 1763-10-252     2409.0000000        2439.2807617       -30.280761719    
 1762-7-161      2417.0000000        2442.4836426       -25.483642578    
 1762-22-60      2383.0000000        2445.7116699       -62.711669922    
 1776-42-355     2284.0000000        2445.9921875       -161.99218750    
 1776-56-27      2238.0000000        2452.4440918       -214.44409180    
 1776-66-54      2214.0000000        2448.9763184       -234.97631836    
 1776-71-64      2224.0000000        2448.7277832       -224.72778320    
 1776-71-365     2228.0000000        2448.4960938       -220.49609375    
 1775-42-355     2284.0000000        2445.8659668       -161.86596680    
 1775-56-27      2239.0000000        2452.3842773       -213.38427734    
 1775-66-54      2213.0000000        2448.8039551       -235.80395508    
 1775-71-64      2224.0000000        2448.5424805       -224.54248047    
 1775-71-365     2228.0000000        2448.3488770       -220.34887695    
 1905-10-252     2395.0000000        2425.7353516       -30.735351562    
 1875-10-252     2391.0000000        2421.6103516       -30.610351562    
 1877-22-79      2360.0000000        2427.1945801       -67.194580078    
 1877-42-356     2273.0000000        2426.8137207       -153.81372070    
 1877-48-355     2238.0000000        2432.9360352       -194.93603516    
 1877-66-59      2185.0000000        2429.4809570       -244.48095703    
 1877-71-64      2205.0000000        2429.3247070       -224.32470703    
 1877-71-365     2210.0000000        2429.0336914       -219.03369141    
 1878-42-356     2273.0000000        2427.3300781       -154.33007812    
 1878-48-356     2239.0000000        2433.3432617       -194.34326172    
 1878-56-10      2207.0000000        2435.0832520       -228.08325195    
 1878-61-26      2176.0000000        2433.0993652       -257.09936523    
 1878-66-59      2186.0000000        2429.9675293       -243.96752930    
 1878-71-64      2207.0000000        2429.7604980       -222.76049805    
 1878-71-365     2211.0000000        2429.5607910       -218.56079102    
 1926-42-363     2274.0000000        2415.8625488       -141.86254883    
 1886-22-79      2353.0000000        2420.1982422       -67.198242188    
 1886-26-349     2341.0000000        2420.6499023       -79.649902344    
 1886-42-362     2271.0000000        2419.5202637       -148.52026367    
 1886-48-357     2237.0000000        2425.9145508       -188.91455078    
 1886-56-24      2201.0000000        2427.9584961       -226.95849609    
 1886-66-1       2173.0000000        2422.1135254       -249.11352539    
 1886-71-62      2198.0000000        2421.9223633       -223.92236328    
 1886-71-365     2203.0000000        2421.6376953       -218.63769531    
 1852-10-255     2390.0000000        2420.2893066       -30.289306641    
 1822-10-255     2384.0000000        2416.8569336       -32.856933594    
 1786-66-19      2167.0000000        2425.6975098       -258.69750977    
 1786-71-33      2188.0000000        2425.4338379       -237.43383789    
 1786-71-365     2192.0000000        2425.0803223       -233.08032227    
 1851-10-252     2391.0000000        2427.4846191       -36.484619141    
 1791-12-116     2390.0000000        2426.0654297       -36.065429688    
 1791-22-79      2356.0000000        2429.0295410       -73.029541016    
 1791-26-294     2344.0000000        2429.6376953       -85.637695312    
 1791-42-356     2270.0000000        2429.0944824       -159.09448242    
 1791-48-356     2235.0000000        2434.7753906       -199.77539062    
 1791-66-56      2187.0000000        2431.9404297       -244.94042969    
 1791-71-33      2203.0000000        2431.7075195       -228.70751953    
 1791-71-365     2208.0000000        2431.4052734       -223.40527344    
 1785-42-356     2271.0000000        2428.9916992       -157.99169922    
 1785-48-356     2235.0000000        2434.6896973       -199.68969727    
 1785-56-10      2212.0000000        2436.1367188       -224.13671875    
 1785-61-26      2173.0000000        2434.6240234       -261.62402344    
 1785-66-56      2186.0000000        2431.8251953       -245.82519531    
 1785-71-33      2203.0000000        2431.5957031       -228.59570312    
 1785-71-365     2208.0000000        2431.2976074       -223.29760742    
 1928-10-256     2381.0000000        2408.0009766       -27.000976562    
 1879-12-111     2376.0000000        2410.2531738       -34.253173828    
 1879-22-79      2350.0000000        2413.5212402       -63.521240234    
 1879-42-362     2268.0000000        2412.9440918       -144.94409180    
 1879-48-357     2235.0000000        2419.2158203       -184.21582031    
 1879-55-353     2199.0000000        2421.2075195       -222.20751953    
 1879-60-313     2201.0000000        2418.8579102       -217.85791016    
 1879-71-49      2192.0000000        2415.2084961       -223.20849609    
 1879-71-365     2198.0000000        2414.9809570       -216.98095703    
 1824-10-256     2376.0000000        2403.4262695       -27.426269531    
 1811-7-156      2379.0000000        2398.8312988       -19.831298828    
 1811-22-79      2341.0000000        2402.7880859       -61.788085938    
 1811-32-32      2314.0000000        2404.1018066       -90.101806641    
 1811-48-357     2232.0000000        2408.5541992       -176.55419922    
 1811-55-354     2190.0000000        2410.1018066       -220.10180664    
 1811-60-349     2149.0000000        2408.0737305       -259.07373047    
 1811-65-355     2161.0000000        2404.9736328       -243.97363281    
 1811-71-68      2187.0000000        2404.6225586       -217.62255859    
 1811-71-365     2193.0000000        2404.4008789       -211.40087891    
 1777-10-256     2378.0000000        2404.3806152       -26.380615234    
 1823-42-362     2268.0000000        2412.9030762       -144.90307617    
 1823-48-357     2235.0000000        2418.9084473       -183.90844727    
 1823-56-32      2194.0000000        2420.6540527       -226.65405273    
 1823-60-313     2165.0000000        2418.6276855       -253.62768555    
 1823-66-19      2171.0000000        2415.4741211       -244.47412109    
 1823-71-49      2194.0000000        2415.2058105       -221.20581055    
 1823-71-365     2200.0000000        2414.9311523       -214.93115234    
 1744-10-256     2381.0000000        2409.0341797       -28.034179688    
 1907-12-116     2361.0000000        2392.9560547       -31.956054688    
 1907-22-79      2337.0000000        2396.5180664       -59.518066406    
 1907-42-362     2259.0000000        2395.5336914       -136.53369141    
 1907-48-357     2229.0000000        2402.1166992       -173.11669922    
 1907-71-365     2189.0000000        2397.3745117       -208.37451172    
 1906-42-362     2259.0000000        2396.4018555       -137.40185547    
 1906-48-357     2230.0000000        2402.9689941       -172.96899414    
 1906-55-356     2188.0000000        2405.4018555       -217.40185547    
 1906-60-341     2164.0000000        2402.3500977       -238.35009766    
 1906-65-355     2153.0000000        2398.4885254       -245.48852539    
 1906-71-32      2182.0000000        2398.3854980       -216.38549805    
 1906-71-365     2189.0000000        2398.2355957       -209.23559570    
 1899-66-19      2159.0000000        2390.5615234       -231.56152344    
 1899-71-32      2181.0000000        2390.5556641       -209.55566406    
 1899-71-365     2188.0000000        2390.3088379       -202.30883789    
 1778-12-261     2348.0000000        2391.3264160       -43.326416016    
 1764-10-257     2360.0000000        2391.3134766       -31.313476562    
 1765-42-362     2257.0000000        2392.0131836       -135.01318359    
 1765-48-357     2229.0000000        2397.8361816       -168.83618164    
 1765-55-354     2179.0000000        2399.1230469       -220.12304688    
 1765-60-349     2153.0000000        2397.0510254       -244.05102539    
 1765-66-56      2160.0000000        2393.9504395       -233.95043945    
 1765-71-32      2181.0000000        2393.7785645       -212.77856445    
 1765-71-365     2188.0000000        2393.5187988       -205.51879883    
 1816-10-153     2360.0000000        2396.0124512       -36.012451172    
 1825-42-335     2255.0000000        2398.4750977       -143.47509766    
 1825-48-357     2225.0000000        2404.4702148       -179.47021484    
 1825-56-27      2180.0000000        2406.1162109       -226.11621094    
 1825-61-42      2142.0000000        2403.8422852       -261.84228516    
 1825-66-19      2156.0000000        2400.6804199       -244.68041992    
 1825-71-32      2178.0000000        2400.4509277       -222.45092773    
 1825-71-365     2185.0000000        2400.2055664       -215.20556641    
 1888-22-79      2317.0000000        2378.8896484       -61.889648438    
 1888-32-32      2295.0000000        2379.9709473       -84.970947266    
 1888-42-362     2247.0000000        2378.5686035       -131.56860352    
 1888-48-357     2222.0000000        2384.6206055       -162.62060547    
 1888-65-355     2147.0000000        2380.2062988       -233.20629883    
 1888-71-32      2173.0000000        2380.2058105       -207.20581055    
 1888-71-365     2179.0000000        2380.0017090       -201.00170898    
 1890-42-362     2247.0000000        2378.3659668       -131.36596680    
 1890-48-357     2222.0000000        2384.4279785       -162.42797852    
 1890-55-350     2180.0000000        2386.1523438       -206.15234375    
 1890-61-42      2153.0000000        2383.3300781       -230.33007812    
 1890-66-19      2152.0000000        2379.9736328       -227.97363281    
 1890-71-32      2176.0000000        2380.0236816       -204.02368164    
 1890-71-365     2180.0000000        2379.8007812       -199.80078125    
 1812-12-91      2340.0000000        2378.7231445       -38.723144531    
 1812-22-62      2314.0000000        2381.5139160       -67.513916016    
 1812-32-60      2298.0000000        2383.0324707       -85.032470703    
 1827-42-362     2250.0000000        2382.2985840       -132.29858398    
 1827-48-357     2224.0000000        2388.0605469       -164.06054688    
 1827-56-25      2183.0000000        2389.3139648       -206.31396484    
 1827-61-42      2153.0000000        2386.8986816       -233.89868164    
 1827-66-19      2155.0000000        2383.9101562       -228.91015625    
 1827-71-32      2178.0000000        2383.8159180       -205.81591797    
 1827-71-365     2184.0000000        2383.5554199       -199.55541992    
 1779-12-109     2333.0000000        2377.2736816       -44.273681641    
 1779-17-80      2325.0000000        2378.2092285       -53.209228516    
 1779-22-79      2314.0000000        2379.8979492       -65.897949219    
 1779-42-362     2247.0000000        2380.3562012       -133.35620117    
 1870-42-364     2234.0000000        2362.0937500       -128.09375000    
 1817-56-20      2185.0000000        2371.9682617       -186.96826172    
 1817-66-34      2159.0000000        2366.7263184       -207.72631836    
 1747-71-60      2179.0000000        2364.4501953       -185.45019531    
 1722-1-152      2342.0000000        2368.6538086       -26.653808594    
 1722-22-80      2297.0000000        2372.2570801       -75.257080078    
 1722-26-349     2292.0000000        2373.2041016       -81.204101562    
 1722-32-32      2282.0000000        2374.2431641       -92.243164062    
 1722-42-362     2237.0000000        2373.4421387       -136.44213867    
 1722-48-357     2221.0000000        2378.5468750       -157.54687500    
 1722-56-24      2192.0000000        2378.6601562       -186.66015625    
 1722-61-11      2180.0000000        2376.4775391       -196.47753906    
 1722-66-59      2175.0000000        2374.1311035       -199.13110352    
 1722-71-56      2178.0000000        2374.0410156       -196.04101562    
 1722-71-365     2182.0000000        2373.7687988       -191.76879883    
 1668-56-20      2191.0000000        2377.7062988       -186.70629883    
 1666-66-34      2190.0000000        2374.9626465       -184.96264648    
 1718-56-20      2187.0000000        2366.2509766       -179.25097656    
 1718-61-59      2146.0000000        2363.3666992       -217.36669922    
 1718-66-34      2164.0000000        2361.1591797       -197.15917969    
 1662-56-20      2204.0000000        2368.5629883       -164.56298828    
 1664-66-34      2183.0000000        2366.5075684       -183.50756836    
 1664-71-60      2192.0000000        2366.5258789       -174.52587891    
 1641-66-34      2201.0000000        2378.0534668       -177.05346680    
 1619-1-365      2394.0000000        2375.6994629        18.300537109    
 1619-8-57       2377.0000000        2376.5151367       0.48486328125    
 1619-12-59      2359.0000000        2377.1545410       -18.154541016    
 1619-17-87      2354.0000000        2378.3325195       -24.332519531    
 1619-22-79      2342.0000000        2379.2089844       -37.208984375    
 1619-42-335     2296.0000000        2380.9462891       -84.946289062    
 1608-35-121     2274.0000000        2381.1960449       -107.19604492    
 1608-42-362     2247.0000000        2382.1354980       -135.13549805    
 1608-48-357     2236.0000000        2387.0080566       -151.00805664    
 1608-55-340     2209.0000000        2386.5190430       -177.51904297    
 1608-60-348     2202.0000000        2384.4162598       -182.41625977    
 1608-66-5       2200.0000000        2382.3962402       -182.39624023    
 1608-71-1       2203.0000000        2381.9433594       -178.94335938    
 1608-71-365     2204.0000000        2381.7060547       -177.70605469    
 1714-56-33      2195.0000000        2389.4541016       -194.45410156    
 1714-71-29      2178.0000000        2384.9665527       -206.96655273    
 1714-71-365     2182.0000000        2384.6323242       -202.63232422    
 1715-66-59      2166.0000000        2385.1984863       -219.19848633    
 1715-71-29      2178.0000000        2384.9665527       -206.96655273    
 1715-71-365     2183.0000000        2384.6323242       -201.63232422    
 1716-66-59      2166.0000000        2383.4250488       -217.42504883    
 1716-71-29      2177.0000000        2383.2185059       -206.21850586    
 1716-71-365     2181.0000000        2382.8842773       -201.88427734    
 1717-71-32      2177.0000000        2382.8657227       -205.86572266    
 1717-71-365     2181.0000000        2382.5937500       -201.59375000    
 1689-71-29      2180.0000000        2384.0104980       -204.01049805    
 1689-71-365     2183.0000000        2383.6855469       -200.68554688    
 1696-66-59      2170.0000000        2384.2595215       -214.25952148    
 1696-71-29      2180.0000000        2384.0104980       -204.01049805    
 1696-71-365     2183.0000000        2383.6855469       -200.68554688    
 1673-2-274      2365.0000000        2386.0441895       -21.044189453    
 1673-8-57       2356.0000000        2386.6066895       -30.606689453    
 1673-12-59      2341.0000000        2387.2573242       -46.257324219    
 1673-17-87      2331.0000000        2388.1499023       -57.149902344    
 1673-22-79      2324.0000000        2389.8425293       -65.842529297    
 1673-42-363     2258.0000000        2390.5710449       -132.57104492    
 1673-48-357     2234.0000000        2395.8735352       -161.87353516    
 1673-56-24      2195.0000000        2396.3544922       -201.35449219    
 1723-1-32       2370.0000000        2376.6577148       -6.6577148438    
 1723-12-59      2331.0000000        2378.0512695       -47.051269531    
 1723-17-87      2319.0000000        2379.0959473       -60.095947266    
 1723-22-80      2306.0000000        2380.5573730       -74.557373047    
 1723-42-363     2250.0000000        2381.2578125       -131.25781250    
 1723-48-357     2231.0000000        2386.6274414       -155.62744141    
 1723-56-24      2195.0000000        2387.2734375       -192.27343750    
 1723-60-348     2174.0000000        2385.1633301       -211.16333008    
 1723-66-59      2169.0000000        2382.4948730       -213.49487305    
 1723-71-32      2180.0000000        2382.3696289       -202.36962891    
 1723-71-365     2185.0000000        2382.0979004       -197.09790039    
 1724-1-365      2346.0000000        2373.7509766       -27.750976562    
 1724-12-59      2327.0000000        2375.1652832       -48.165283203    
 1724-17-82      2317.0000000        2376.2275391       -59.227539062    
 1724-22-80      2304.0000000        2377.5749512       -73.574951172    
 1724-42-363     2247.0000000        2378.3974609       -131.39746094    
 1724-48-357     2230.0000000        2383.6997070       -153.69970703    
 1724-56-20      2196.0000000        2384.2265625       -188.22656250    
 1724-60-348     2180.0000000        2382.0412598       -202.04125977    
 1724-66-59      2175.0000000        2379.4362793       -204.43627930    
 1724-71-56      2182.0000000        2379.3156738       -197.31567383    
 1724-71-365     2186.0000000        2379.0786133       -193.07861328    
 1694-17-82      2345.0000000        2400.9743652       -55.974365234    
 1694-22-80      2332.0000000        2402.8942871       -70.894287109    
 1699-42-363     2258.0000000        2402.0097656       -144.00976562    
 1699-48-357     2227.0000000        2407.5517578       -180.55175781    
 1699-55-356     2177.0000000        2408.6166992       -231.61669922    
 1699-60-349     2146.0000000        2407.0527344       -261.05273438    
 1699-66-56      2161.0000000        2404.2609863       -243.26098633    
 1699-71-32      2177.0000000        2403.9277344       -226.92773438    
 1699-71-365     2185.0000000        2403.6535645       -218.65356445    
 1695-7-158      2368.0000000        2394.9672852       -26.967285156    
 1695-42-363     2263.0000000        2398.9223633       -135.92236328    
 1695-48-357     2234.0000000        2404.4267578       -170.42675781    
 1695-56-24      2185.0000000        2405.4670410       -220.46704102    
 1695-60-336     2192.0000000        2403.8120117       -211.81201172    
 1695-66-56      2168.0000000        2401.0410156       -233.04101562    
 1695-71-56      2184.0000000        2400.6833496       -216.68334961    
 1695-71-365     2190.0000000        2400.4421387       -210.44213867    
 1658-2-217      2372.0000000        2391.0661621       -19.066162109    
 1658-8-58       2367.0000000        2391.6447754       -24.644775391    
 1658-12-59      2352.0000000        2392.2734375       -40.273437500    
 1658-17-87      2338.0000000        2393.1191406       -55.119140625    
 1658-22-81      2328.0000000        2394.8178711       -66.817871094    
 1652-42-363     2266.0000000        2395.3928223       -129.39282227    
 1652-48-357     2241.0000000        2400.5888672       -159.58886719    
 1652-56-24      2202.0000000        2401.1667480       -199.16674805    
 1652-60-349     2177.0000000        2399.6916504       -222.69165039    
 1652-66-1       2177.0000000        2397.3132324       -220.31323242    
 1652-71-76      2192.0000000        2396.7604980       -204.76049805    
 1652-71-365     2196.0000000        2396.5405273       -200.54052734    
 1633-12-96      2371.0000000        2403.2705078       -32.270507812    
 1633-17-89      2356.0000000        2404.0449219       -48.044921875    
 1633-42-355     2266.0000000        2406.6064453       -140.60644531    
 1713-61-54      2157.0000000        2423.0915527       -266.09155273    
 1713-66-56      2183.0000000        2420.3728027       -237.37280273    
 1713-71-64      2202.0000000        2420.0085449       -218.00854492    
 1713-71-365     2207.0000000        2419.7609863       -212.76098633    
 1670-42-357     2269.0000000        2415.0883789       -146.08837891    
 1656-22-80      2344.0000000        2415.8911133       -71.891113281    
 1656-31-351     2319.0000000        2417.7761230       -98.776123047    
 1656-37-343     2281.0000000        2416.5190430       -135.51904297    
 1656-55-360     2198.0000000        2422.4636230       -224.46362305    
 1656-61-42      2155.0000000        2421.6171875       -266.61718750    
 1656-66-56      2179.0000000        2419.2856445       -240.28564453    
 1656-71-33      2195.0000000        2418.8032227       -223.80322266    
 1656-71-365     2200.0000000        2418.4951172       -218.49511719    
 1655-17-89      2365.0000000        2416.5285645       -51.528564453    
 1655-22-80      2348.0000000        2418.3925781       -70.392578125    
 1655-42-355     2271.0000000        2418.9343262       -147.93432617    
 1655-48-364     2236.0000000        2424.0903320       -188.09033203    
 1651-42-362     2268.0000000        2408.4060059       -140.40600586    
 1651-48-355     2239.0000000        2413.6474609       -174.64746094    
 1657-60-349     2162.0000000        2414.0012207       -252.00122070    
 1657-66-56      2177.0000000        2411.4768066       -234.47680664    
 1657-71-32      2193.0000000        2411.0502930       -218.05029297    
 1657-71-365     2198.0000000        2410.7719727       -212.77197266    
 1614-12-96      2380.0000000        2416.0483398       -36.048339844    
 1614-17-89      2369.0000000        2416.7878418       -47.787841797    
 1614-22-80      2347.0000000        2418.5454102       -71.545410156    
 1615-17-89      2366.0000000        2416.5104980       -50.510498047    
 1615-22-80      2347.0000000        2418.2680664       -71.268066406    
 1615-42-356     2273.0000000        2419.0932617       -146.09326172    
 1615-48-355     2242.0000000        2423.9099121       -181.90991211    
 1615-56-20      2207.0000000        2424.6987305       -217.69873047    
 1615-61-31      2163.0000000        2424.1025391       -261.10253906    
 1615-66-56      2186.0000000        2422.0246582       -236.02465820    
 1615-71-33      2200.0000000        2421.4291992       -221.42919922    
 1615-71-365     2204.0000000        2421.1494141       -217.14941406    
 1611-42-356     2272.0000000        2420.0129395       -148.01293945    
 1611-48-355     2241.0000000        2424.8447266       -183.84472656    
 1611-56-20      2207.0000000        2425.7219238       -218.72192383    
 1611-61-31      2163.0000000        2425.0097656       -262.00976562    
 1611-66-56      2185.0000000        2422.8874512       -237.88745117    
 1611-71-33      2199.0000000        2422.3295898       -223.32958984    
 1611-71-365     2204.0000000        2422.0595703       -218.05957031    
 1708-42-357     2272.0000000        2431.5839844       -159.58398438    
 1708-48-341     2223.0000000        2436.9628906       -213.96289062    
 1693-17-87      2379.0000000        2429.5136719       -50.513671875    
 1693-22-79      2362.0000000        2431.4387207       -69.438720703    
 1693-42-356     2271.0000000        2431.8681641       -160.86816406    
 1693-48-356     2236.0000000        2437.2058105       -201.20581055    
 1687-42-356     2273.0000000        2431.9572754       -158.95727539    
 1687-48-356     2238.0000000        2437.2773438       -199.27734375    
 1687-56-27      2207.0000000        2438.5197754       -231.51977539    
 1687-61-26      2181.0000000        2437.4323730       -256.43237305    
 1687-66-56      2192.0000000        2434.9824219       -242.98242188    
 1687-71-33      2207.0000000        2434.6621094       -227.66210938    
 1687-71-365     2212.0000000        2434.3601074       -222.36010742    
 1681-17-87      2373.0000000        2422.6320801       -49.632080078    
 1681-22-79      2354.0000000        2424.5742188       -70.574218750    
 1681-26-294     2343.0000000        2425.2272949       -82.227294922    
 1681-48-356     2235.0000000        2430.2968750       -195.29687500    
 1681-66-56      2184.0000000        2427.9160156       -243.91601562    
 1681-71-33      2201.0000000        2427.5600586       -226.56005859    
 1681-71-365     2202.0000000        2427.2260742       -225.22607422    
 1688-42-356     2269.0000000        2424.9213867       -155.92138672    
 1688-48-356     2235.0000000        2430.2788086       -195.27880859    
 1688-55-364     2210.0000000        2431.4899902       -221.48999023    
 1688-61-21      2182.0000000        2430.3579102       -248.35791016    
 1688-66-56      2184.0000000        2427.8325195       -243.83251953    
 1688-71-33      2201.0000000        2427.4814453       -226.48144531    
 1688-71-365     2203.0000000        2427.1806641       -224.18066406    
 1596-12-96      2385.0000000        2423.3149414       -38.314941406    
 1596-22-81      2353.0000000        2425.8176270       -72.817626953    
 1596-42-356     2271.0000000        2426.6130371       -155.61303711    
 1621-42-356     2275.0000000        2426.9250488       -151.92504883    
 1621-48-356     2242.0000000        2431.7507324       -189.75073242    
 1621-56-6       2216.0000000        2432.6865234       -216.68652344    
 1621-61-42      2165.0000000        2432.0991211       -267.09912109    
 1621-65-355     2189.0000000        2430.1230469       -241.12304688    
 1621-71-33      2206.0000000        2429.5051270       -223.50512695    
 1621-71-365     2209.0000000        2429.2221680       -220.22216797    
 1605-11-45      2405.0000000        2424.0712891       -19.071289062    
 1630-17-87      2382.0000000        2432.5136719       -50.513671875    
 1630-22-79      2366.0000000        2434.2529297       -68.252929688    
 1630-42-355     2277.0000000        2435.1035156       -158.10351562    
 1630-48-356     2242.0000000        2439.9116211       -197.91162109    
 1630-66-59      2198.0000000        2438.4223633       -240.42236328    
 1630-71-33      2210.0000000        2437.9621582       -227.96215820    
 1630-71-365     2211.0000000        2437.6577148       -226.65771484    
 1629-42-355     2274.0000000        2435.1970215       -161.19702148    
 1629-48-356     2242.0000000        2440.0236816       -198.02368164    
 1629-56-9       2225.0000000        2441.0515137       -216.05151367    
 1629-61-21      2198.0000000        2440.4804688       -242.48046875    
 1629-66-59      2199.0000000        2438.4211426       -239.42114258    
 1629-71-33      2211.0000000        2437.9860840       -226.98608398    
 1629-71-365     2213.0000000        2437.7036133       -224.70361328    
 1683-22-79      2379.0000000        2445.4035645       -66.403564453    
 1683-26-349     2360.0000000        2446.3566895       -86.356689453    
 1683-42-355     2286.0000000        2446.2783203       -160.27832031    
 1683-48-355     2256.0000000        2451.4553223       -195.45532227    
 1683-56-27      2237.0000000        2452.4714355       -215.47143555    
 1683-60-349     2213.0000000        2451.7258301       -238.72583008    
 1683-66-54      2213.0000000        2449.5388184       -236.53881836    
 1679-42-355     2286.0000000        2446.3349609       -160.33496094    
 1679-48-355     2251.0000000        2451.4553223       -200.45532227    
 1679-56-27      2238.0000000        2452.4714355       -214.47143555    
 1679-61-11      2213.0000000        2451.7187500       -238.71875000    
 1680-66-54      2212.0000000        2449.5256348       -237.52563477    
 1654-42-355     2280.0000000        2440.4863281       -160.48632812    
 1654-48-355     2244.0000000        2445.4892578       -201.48925781    
 1654-56-27      2225.0000000        2446.5563965       -221.55639648    
 1654-61-14      2198.0000000        2445.8623047       -247.86230469    
 1654-66-54      2206.0000000        2443.7246094       -237.72460938    
 1654-71-64      2218.0000000        2443.3327637       -225.33276367    
 1654-71-365     2221.0000000        2443.0817871       -222.08178711    
 1660-42-355     2279.0000000        2440.4863281       -161.48632812    
 1660-48-355     2243.0000000        2445.4892578       -202.48925781    
 1660-56-27      2224.0000000        2446.5563965       -222.55639648    
 1660-60-349     2198.0000000        2445.8701172       -247.87011719    
 1660-66-54      2205.0000000        2443.7246094       -238.72460938    
 1660-71-64      2218.0000000        2443.3327637       -225.33276367    
 1660-71-365     2221.0000000        2443.0817871       -222.08178711    
 1554-22-81      2379.0000000        2453.1909180       -74.190917969    
 1554-27-15      2357.0000000        2454.2929688       -97.292968750    
 1554-32-60      2340.0000000        2455.5666504       -115.56665039    
 1554-56-26      2254.0000000        2459.5334473       -205.53344727    
 1554-61-12      2230.0000000        2459.7719727       -229.77197266    
 1554-66-59      2227.0000000        2458.5078125       -231.50781250    
 1554-71-54      2233.0000000        2458.0122070       -225.01220703    
 1554-71-365     2236.0000000        2457.7961426       -221.79614258    
 1504-22-60      2375.0000000        2457.4516602       -82.451660156    
 1548-7-158      2406.0000000        2435.1459961       -29.145996094    
 1548-11-82      2402.0000000        2435.4731445       -33.473144531    
 1548-17-87      2380.0000000        2436.2524414       -56.252441406    
 1548-22-81      2365.0000000        2437.7663574       -72.766357422    
 1548-26-278     2343.0000000        2438.6118164       -95.611816406    
 1550-48-365     2255.0000000        2443.1071777       -188.10717773    
 1550-56-6       2225.0000000        2443.9738770       -218.97387695    
 1550-61-27      2193.0000000        2444.0495605       -251.04956055    
 1550-66-28      2206.0000000        2442.6018066       -236.60180664    
 1550-71-13      2215.0000000        2441.9274902       -226.92749023    
 1550-71-365     2219.0000000        2441.6862793       -222.68627930    
 1559-66-46      2194.0000000        2434.7463379       -240.74633789    
 1559-71-365     2207.0000000        2433.7851562       -226.78515625    
 1569-32-60      2330.0000000        2436.2121582       -106.21215820    
 1569-37-89      2305.0000000        2435.5219727       -130.52197266    
 1569-42-356     2281.0000000        2435.2751465       -154.27514648    
 1569-48-355     2252.0000000        2439.4562988       -187.45629883    
 1569-56-26      2222.0000000        2440.3269043       -218.32690430    
 1569-61-24      2180.0000000        2440.2893066       -260.28930664    
 1569-66-28      2199.0000000        2438.7341309       -239.73413086    
 1569-71-365     2215.0000000        2437.7944336       -222.79443359    
 1540-17-86      2377.0000000        2435.7778320       -58.777832031    
 1540-22-81      2362.0000000        2437.2622070       -75.262207031    
 1540-26-279     2342.0000000        2438.1176758       -96.117675781    
 1540-42-355     2284.0000000        2438.6416016       -154.64160156    
 1540-48-355     2257.0000000        2442.5500488       -185.55004883    
 1540-56-26      2232.0000000        2443.4335938       -211.43359375    
 1540-60-350     2200.0000000        2443.5847168       -243.58471680    
 1540-66-28      2205.0000000        2442.1950684       -237.19506836    
 1540-71-365     2218.0000000        2441.2368164       -223.23681641    
 1526-17-87      2378.0000000        2436.5524902       -58.552490234    
 1526-22-81      2363.0000000        2437.9997559       -74.999755859    
 1526-26-349     2384.0000000        2438.8928223       -54.892822266    
 1526-32-60      2329.0000000        2440.2014160       -111.20141602    
 1526-42-356     2289.0000000        2439.4418945       -150.44189453    
 1526-48-355     2269.0000000        2443.2199707       -174.21997070    
 1526-56-26      2243.0000000        2444.1513672       -201.15136719    
 1526-60-350     2211.0000000        2444.2626953       -233.26269531    
 1526-65-355     2210.0000000        2442.9543457       -232.95434570    
 1526-71-362     2219.0000000        2442.1909180       -223.19091797    
 1518-42-357     2288.0000000        2440.0864258       -152.08642578    
 1517-71-53      2226.0000000        2451.1628418       -225.16284180    
 1517-71-365     2228.0000000        2450.9721680       -222.97216797    
 1564-56-26      2224.0000000        2432.2780762       -208.27807617    
 1564-71-365     2211.0000000        2429.2976074       -218.29760742    
 1552-12-59      2387.0000000        2416.3442383       -29.344238281    
 1552-17-85      2369.0000000        2417.0307617       -48.030761719    
 1552-22-80      2348.0000000        2418.6325684       -70.632568359    
 1557-42-356     2279.0000000        2419.6333008       -140.63330078    
 1557-48-355     2255.0000000        2423.9074707       -168.90747070    
 1557-56-20      2229.0000000        2424.4331055       -195.43310547    
 1557-71-13      2210.0000000        2421.7438965       -211.74389648    
 1557-71-365     2214.0000000        2421.5085449       -207.50854492    
 1570-2-98       2390.0000000        2412.5615234       -22.561523438    
 1631-12-96      2393.0000000        2422.0131836       -29.013183594    
 1631-17-87      2379.0000000        2422.6369629       -43.636962891    
 1631-22-80      2357.0000000        2424.1040039       -67.104003906    
 1631-26-279     2340.0000000        2424.9072266       -84.907226562    
 1631-42-355     2287.0000000        2425.6918945       -138.69189453    
 1631-48-355     2262.0000000        2429.4108887       -167.41088867    
 1631-56-26      2241.0000000        2429.9975586       -188.99755859    
 1631-66-32      2212.0000000        2428.7145996       -216.71459961    
 1631-71-33      2220.0000000        2427.7565918       -207.75659180    
 1631-71-365     2226.0000000        2427.5744629       -201.57446289    
 1519-42-355     2288.0000000        2425.7285156       -137.72851562    
 1519-48-355     2265.0000000        2429.6394043       -164.63940430    
 1519-56-20      2242.0000000        2430.2819824       -188.28198242    
 1519-61-18      2212.0000000        2430.1621094       -218.16210938    
 1519-66-32      2212.0000000        2428.6442871       -216.64428711    
 1519-71-33      2222.0000000        2427.7924805       -205.79248047    
 1519-71-365     2225.0000000        2427.5939941       -202.59399414    
 1542-56-20      2230.0000000        2434.6391602       -204.63916016    
 1542-60-350     2189.0000000        2434.4960938       -245.49609375    
 1542-66-54      2201.0000000        2432.8540039       -231.85400391    
 1542-71-13      2211.0000000        2432.1542969       -221.15429688    
 1542-71-365     2215.0000000        2431.9213867       -216.92138672    
 1520-17-87      2376.0000000        2428.0129395       -52.012939453    
 1520-22-80      2358.0000000        2429.4609375       -71.460937500    
 1520-32-60      2328.0000000        2431.7292480       -103.72924805    
 1520-42-356     2288.0000000        2430.9965820       -142.99658203    
 1597-56-27      2221.0000000        2418.1296387       -197.12963867    
 1597-66-26      2193.0000000        2415.7448730       -222.74487305    
 1597-71-28      2205.0000000        2414.9672852       -209.96728516    
 1597-71-365     2208.0000000        2414.7099609       -206.70996094    
 1581-11-256     2383.0000000        2410.1625977       -27.162597656    
 1583-56-27      2226.0000000        2412.4023438       -186.40234375    
 1583-66-26      2197.0000000        2410.0380859       -213.03808594    
 1583-71-28      2207.0000000        2409.1892090       -202.18920898    
 1583-71-29      2209.0000000        2409.1884766       -200.18847656    
 1583-71-365     2210.0000000        2408.9440918       -198.94409180    
 1565-71-28      2215.0000000        2417.0451660       -202.04516602    
 1565-71-365     2217.0000000        2416.8049316       -199.80493164    
 1595-11-257     2369.0000000        2401.3349609       -32.334960938    
 1533-8-65       2373.0000000        2401.8640137       -28.864013672    
 1533-12-96      2366.0000000        2402.4230957       -36.423095703    
 1533-17-82      2354.0000000        2403.1586914       -49.158691406    
 1533-22-80      2339.0000000        2404.5996094       -65.599609375    
 1533-27-15      2324.0000000        2405.4802246       -81.480224609    
 1533-42-363     2280.0000000        2406.4645996       -126.46459961    
 1537-42-363     2277.0000000        2404.8425293       -127.84252930    
 1537-48-357     2262.0000000        2409.3173828       -147.31738281    
 1541-66-55      2208.0000000        2407.0480957       -199.04809570    
 1541-71-76      2217.0000000        2406.0759277       -189.07592773    
 1541-71-365     2216.0000000        2405.8906250       -189.89062500    
 1510-42-357     2288.0000000        2408.4233398       -120.42333984    
 1510-48-337     2274.0000000        2412.6545410       -138.65454102    
 1510-56-18      2247.0000000        2412.5656738       -165.56567383    
 1510-60-333     2215.0000000        2411.5881348       -196.58813477    
 1510-65-299     2215.0000000        2409.9667969       -194.96679688    
 1510-71-11      2226.0000000        2408.9504395       -182.95043945    
 1510-71-365     2232.0000000        2408.7392578       -176.73925781    
 1511-31-351     2321.0000000        2408.8974609       -87.897460938    
 1511-37-27      2298.0000000        2407.6560059       -109.65600586    
 1511-42-357     2285.0000000        2408.4233398       -123.42333984    
 1511-48-337     2270.0000000        2412.6545410       -142.65454102    
 1511-56-18      2243.0000000        2412.5656738       -169.56567383    
 1511-60-333     2210.0000000        2411.5881348       -201.58813477    
 1511-65-299     2210.0000000        2409.9667969       -199.96679688    
 1511-71-12      2223.0000000        2408.9497070       -185.94970703    
 1511-71-365     2231.0000000        2408.7392578       -177.73925781    
 1512-31-351     2313.0000000        2408.8974609       -95.897460938    
 1512-42-357     2281.0000000        2408.4233398       -127.42333984    
 1512-48-337     2266.0000000        2412.6545410       -146.65454102    
 1512-56-18      2244.0000000        2412.5656738       -168.56567383    
 1513-31-351     2313.0000000        2408.8974609       -95.897460938    
 1513-42-357     2279.0000000        2408.4233398       -129.42333984    
 1513-48-337     2262.0000000        2412.6545410       -150.65454102    
 1513-56-18      2241.0000000        2412.5656738       -171.56567383    
 1513-60-333     2223.0000000        2411.5881348       -188.58813477    
 1513-65-299     2216.0000000        2409.9667969       -193.96679688    
 1513-71-11      2225.0000000        2408.9504395       -183.95043945    
 1513-71-365     2229.0000000        2408.7392578       -179.73925781    
 1505-66-26      2212.0000000        2424.7543945       -212.75439453    
 1505-71-53      2224.0000000        2423.7270508       -199.72705078    
 1505-71-365     2227.0000000        2423.5583496       -196.55834961    
 1546-8-65       2365.0000000        2394.6103516       -29.610351562    
 1546-10-31      2359.0000000        2394.8229980       -35.822998047    
 1546-17-82      2340.0000000        2396.1752930       -56.175292969    
 1546-22-81      2325.0000000        2397.4218750       -72.421875000    
 1551-42-363     2269.0000000        2397.8767090       -128.87670898    
 1551-48-357     2247.0000000        2402.3942871       -155.39428711    
 1551-56-13      2223.0000000        2402.0197754       -179.01977539    
 1551-61-31      2211.0000000        2400.6936035       -189.69360352    
 1551-66-19      2205.0000000        2398.8740234       -193.87402344    
 1551-71-32      2214.0000000        2398.0471191       -184.04711914    
 1551-71-365     2217.0000000        2397.8395996       -180.83959961    
 1525-10-154     2356.0000000        2392.6333008       -36.633300781    
 1525-22-83      2327.0000000        2395.1674805       -68.167480469    
 1525-32-60      2295.0000000        2397.4465332       -102.44653320    
 1525-42-363     2270.0000000        2397.2465820       -127.24658203    
 1525-56-25      2233.0000000        2401.3864746       -168.38647461    
 1525-60-351     2221.0000000        2399.4399414       -178.43994141    
 1525-66-1       2214.0000000        2397.5671387       -183.56713867    
 1525-71-32      2220.0000000        2396.7895508       -176.78955078    
 1525-71-365     2222.0000000        2396.6086426       -174.60864258    
 1813-17-82      2346.0000000        2398.2424316       -52.242431641    
 1813-22-82      2331.0000000        2399.4445801       -68.444580078    
 1813-26-294     2315.0000000        2400.3344727       -85.334472656    
 1813-42-363     2274.0000000        2401.2722168       -127.27221680    
 1813-48-357     2254.0000000        2405.7824707       -151.78247070    
 1813-56-25      2232.0000000        2405.5771484       -173.57714844    
 1813-60-351     2216.0000000        2404.2128906       -188.21289062    
 1813-66-19      2211.0000000        2402.3352051       -191.33520508    
 1813-71-32      2219.0000000        2401.5378418       -182.53784180    
 1813-71-365     2221.0000000        2401.3349609       -180.33496094    
 1538-10-154     2366.0000000        2393.8378906       -27.837890625    
 1538-17-86      2350.0000000        2395.2578125       -45.257812500    
 1538-22-82      2333.0000000        2396.3786621       -63.378662109    
 1538-42-363     2276.0000000        2398.2666016       -122.26660156    
 1567-12-59      2335.0000000        2380.4389648       -45.438964844    
 1567-17-85      2326.0000000        2381.8286133       -55.828613281    
 1567-22-53      2311.0000000        2382.3369141       -71.336914062    
 1567-27-15      2301.0000000        2383.6789551       -82.678955078    
 1567-32-65      2290.0000000        2384.6376953       -94.637695312    
 1578-42-362     2258.0000000        2383.2705078       -125.27050781    
 1579-34-182     2273.0000000        2374.1518555       -101.15185547    
 1466-12-96      2355.0000000        2390.9960938       -35.996093750    
 1466-17-89      2342.0000000        2393.2651367       -51.265136719    
 1466-32-60      2285.0000000        2394.9448242       -109.94482422    
 1466-37-89      2283.0000000        2392.7319336       -109.73193359    
 1466-42-363     2278.0000000        2395.8288574       -117.82885742    
 1466-48-357     2273.0000000        2401.3471680       -128.34716797    
 1466-56-25      2260.0000000        2399.5495605       -139.54956055    
 1466-71-365     2262.0000000        2392.0698242       -130.06982422    
 1467-17-89      2339.0000000        2393.7617188       -54.761718750    
 1467-22-60      2341.0000000        2393.3215332       -52.321533203    
 1467-48-357     2284.0000000        2401.8579102       -117.85791016    
 1467-56-25      2271.0000000        2400.0617676       -129.06176758    
 1467-60-351     2249.0000000        2395.3979492       -146.39794922    
 1467-65-355     2244.0000000        2393.4440918       -149.44409180    
 1467-71-52      2248.0000000        2392.6943359       -144.69433594    
 1467-71-365     2251.0000000        2392.6171875       -141.61718750    
 1470-17-82      2358.0000000        2407.1345215       -49.134521484    
 1470-22-82      2341.0000000        2408.1757812       -67.175781250    
 1470-42-362     2281.0000000        2410.4895020       -129.48950195    
 1470-48-357     2261.0000000        2414.6352539       -153.63525391    
 1470-56-18      2245.0000000        2414.1555176       -169.15551758    
 1470-60-308     2248.0000000        2412.7773438       -164.77734375    
 1470-71-365     2236.0000000        2409.8881836       -173.88818359    
 1500-27-60      2313.0000000        2399.4916992       -86.491699219    
 1500-42-362     2271.0000000        2400.7080078       -129.70800781    
 1500-48-357     2256.0000000        2405.2211914       -149.22119141    
 1500-56-25      2238.0000000        2404.4406738       -166.44067383    
 1500-60-351     2226.0000000        2402.4077148       -176.40771484    
 1459-11-68      2372.0000000        2400.0234375       -28.023437500    
 1459-17-82      2352.0000000        2401.8710938       -49.871093750    
 1459-22-60      2338.0000000        2402.3996582       -64.399658203    
 1459-26-293     2313.0000000        2403.5290527       -90.529052734    
 1459-42-363     2281.0000000        2405.1162109       -124.11621094    
 1459-48-357     2271.0000000        2409.7827148       -138.78271484    
 1459-56-25      2257.0000000        2408.6547852       -151.65478516    
 1459-60-351     2245.0000000        2405.9125977       -160.91259766    
 1459-66-12      2239.0000000        2404.0905762       -165.09057617    
 1459-71-365     2240.0000000        2403.0419922       -163.04199219    
 1455-12-96      2383.0000000        2410.0246582       -27.024658203    
 1455-17-82      2366.0000000        2410.8005371       -44.800537109    
 1443-12-96      2386.0000000        2410.8518066       -24.851806641    
 1443-17-82      2368.0000000        2411.8500977       -43.850097656    
 1443-32-60      2324.0000000        2415.2990723       -91.299072266    
 1443-38-60      2317.0000000        2413.8330078       -96.833007812    
 1443-42-364     2288.0000000        2415.3254395       -127.32543945    
 1443-48-341     2308.0000000        2419.2976074       -111.29760742    
 1486-56-56      2255.0000000        2426.0788574       -171.07885742    
 1486-71-365     2233.0000000        2423.5388184       -190.53881836    
 1485-71-365     2233.0000000        2423.5388184       -190.53881836    
 1475-11-305     2358.0000000        2410.4030762       -52.403076172    
 1465-17-82      2367.0000000        2413.7788086       -46.778808594    
 1465-22-82      2351.0000000        2415.1315918       -64.131591797    
 1465-42-356     2285.0000000        2417.4116211       -132.41162109    
 1465-48-355     2273.0000000        2420.9069824       -147.90698242    
 1465-56-25      2256.0000000        2420.8198242       -164.81982422    
 1465-60-351     2237.0000000        2420.5041504       -183.50415039    
 1465-66-1       2234.0000000        2419.0520020       -185.05200195    
 1465-71-365     2240.0000000        2417.6684570       -177.66845703    
 1440-17-82      2373.0000000        2420.3789062       -47.378906250    
 1440-22-80      2355.0000000        2421.6579590       -66.657958984    
 1440-32-60      2326.0000000        2424.0434570       -98.043457031    
 1440-37-90      2301.0000000        2423.2070312       -122.20703125    
 1440-48-355     2276.0000000        2427.2175293       -151.21752930    
 1441-11-283     2409.0000000        2427.9638672       -18.963867188    
 1474-17-87      2384.0000000        2434.9328613       -50.932861328    
 1474-22-80      2367.0000000        2436.2309570       -69.230957031    
 1474-61-31      2235.0000000        2442.4477539       -207.44775391    
 1474-71-68      2238.0000000        2440.3981934       -202.39819336    
 1474-71-365     2238.0000000        2440.2739258       -202.27392578    
 1478-48-355     2282.0000000        2440.5507812       -158.55078125    
 1478-56-26      2259.0000000        2441.4057617       -182.40576172    
 1478-60-350     2238.0000000        2441.6948242       -203.69482422    
 1478-65-355     2224.0000000        2440.5764160       -216.57641602    
 1478-71-68      2237.0000000        2439.5976562       -202.59765625    
 1478-71-365     2238.0000000        2439.4580078       -201.45800781    
 1453-17-85      2382.0000000        2429.6804199       -47.680419922    
 1453-22-80      2362.0000000        2430.9794922       -68.979492188    
 1453-42-356     2296.0000000        2432.9611816       -136.96118164    
 1453-48-355     2280.0000000        2435.9111328       -155.91113281    
 1453-66-49      2244.0000000        2435.8613281       -191.86132812    
 1453-71-68      2245.0000000        2434.7675781       -189.76757812    
 1453-71-365     2244.0000000        2434.6542969       -190.65429688    
 1454-42-356     2295.0000000        2434.3793945       -139.37939453    
 1454-48-355     2279.0000000        2437.5065918       -158.50659180    
 1454-55-362     2264.0000000        2438.1665039       -174.16650391    
 1454-61-31      2239.0000000        2438.3210449       -199.32104492    
 1454-66-49      2238.0000000        2437.1345215       -199.13452148    
 1454-71-68      2244.0000000        2436.1594238       -192.15942383    
 1454-71-365     2244.0000000        2436.0307617       -192.03076172    
 1447-66-49      2234.0000000        2437.5512695       -203.55126953    
 1447-71-68      2240.0000000        2436.4699707       -196.46997070    
 1447-71-365     2241.0000000        2436.3591309       -195.35913086    
 1444-42-356     2300.0000000        2440.1303711       -140.13037109    
 1444-48-355     2280.0000000        2442.9516602       -162.95166016    
 1444-55-362     2266.0000000        2443.8183594       -177.81835938    
 1444-61-6       2244.0000000        2444.2861328       -200.28613281    
 1444-66-49      2245.0000000        2443.2731934       -198.27319336    
 1444-71-68      2248.0000000        2442.2773438       -194.27734375    
 1444-71-365     2249.0000000        2442.1665039       -193.16650391    
 1499-11-360     2412.0000000        2444.7890625       -32.789062500    
 1499-17-85      2392.0000000        2445.4084473       -53.408447266    
 1499-22-81      2373.0000000        2446.7121582       -73.712158203    
 1499-48-355     2278.0000000        2451.7209473       -173.72094727    
 1499-56-20      2259.0000000        2452.7360840       -193.73608398    
 1499-60-350     2237.0000000        2453.1604004       -216.16040039    
 1499-66-14      2227.0000000        2452.1398926       -225.13989258    
 1499-71-64      2230.0000000        2451.3703613       -221.37036133    
 1499-71-365     2231.0000000        2451.2075195       -220.20751953    
 1490-66-45      2231.0000000        2454.1706543       -223.17065430    
 1490-71-64      2237.0000000        2453.3991699       -216.39916992    
 1490-71-365     2236.0000000        2453.2500000       -217.25000000    
 1436-71-64      2247.0000000        2450.6157227       -203.61572266    
 1436-71-365     2247.0000000        2450.4846191       -203.48461914    
 1488-17-87      2396.0000000        2458.3957520       -62.395751953    
 1488-22-81      2374.0000000        2459.5800781       -85.580078125    
 1488-48-350     2281.0000000        2464.5690918       -183.56909180    
 1488-56-20      2281.0000000        2465.7028809       -184.70288086    
 1502-17-85      2394.0000000        2454.1796875       -60.179687500    
 1502-22-81      2374.0000000        2455.4169922       -81.416992188    
 1502-48-365     2275.0000000        2460.4460449       -185.44604492    
 1502-56-20      2259.0000000        2461.5102539       -202.51025391    
 1502-60-350     2239.0000000        2461.9914551       -222.99145508    
 1502-66-46      2231.0000000        2461.1811523       -230.18115234    
 1502-71-54      2236.0000000        2460.5781250       -224.57812500    
 1502-71-365     2237.0000000        2460.3996582       -223.39965820    
 1477-8-69       2422.0000000        2453.1323242       -31.132324219    
 1477-12-96      2416.0000000        2453.3469238       -37.346923828    
 1477-17-86      2396.0000000        2453.9274902       -57.927490234    
 1477-22-81      2375.0000000        2455.1262207       -80.126220703    
 1477-32-60      2339.0000000        2457.4665527       -118.46655273    
 1458-17-85      2403.0000000        2459.8381348       -56.838134766    
 1458-22-81      2374.0000000        2460.9416504       -86.941650391    
 1458-42-355     2307.0000000        2462.9382324       -155.93823242    
 1458-48-350     2294.0000000        2465.6706543       -171.67065430    
 1458-56-20      2293.0000000        2466.8735352       -173.87353516    
 1458-60-350     2267.0000000        2467.5371094       -200.53710938    
 1458-71-64      2254.0000000        2466.2915039       -212.29150391    
 1458-71-365     2254.0000000        2466.1523438       -212.15234375    
 1460-66-1       2248.0000000        2466.7548828       -218.75488281    
 1460-71-64      2252.0000000        2466.1135254       -214.11352539    
 1460-71-365     2252.0000000        2465.9743652       -213.97436523    
 1429-17-85      2413.0000000        2465.4943848       -52.494384766    
 1429-22-81      2380.0000000        2466.4675293       -86.467529297    
 1429-42-355     2327.0000000        2468.6289062       -141.62890625    
 1429-48-350     2319.0000000        2470.8754883       -151.87548828    
 1429-56-20      2319.0000000        2472.1953125       -153.19531250    
 1429-60-350     2295.0000000        2472.9851074       -177.98510742    
 1429-66-53      2283.0000000        2472.5852051       -189.58520508    
 1429-71-13      2281.0000000        2472.0244141       -191.02441406    
 1429-71-365     2281.0000000        2471.9023438       -190.90234375    
 1431-17-85      2421.0000000        2472.7231445       -51.723144531    
 1431-22-82      2385.0000000        2473.6484375       -88.648437500    
 1431-27-63      2379.0000000        2474.8295898       -95.829589844    
 1431-32-60      2360.0000000        2476.0637207       -116.06372070    
 1431-42-355     2337.0000000        2475.8815918       -138.88159180    
 1431-48-350     2329.0000000        2478.0510254       -149.05102539    
 1431-56-20      2334.0000000        2479.4257812       -145.42578125    
 1431-60-350     2307.0000000        2480.2663574       -173.26635742    
 1431-71-13      2294.0000000        2479.5710449       -185.57104492    
 1431-71-365     2293.0000000        2479.4340820       -186.43408203    
 1392-16-363     2419.0000000        2470.6127930       -51.612792969    
 1397-22-80      2377.0000000        2439.9257812       -62.925781250    
 1397-42-355     2303.0000000        2442.2463379       -139.24633789    
 1397-48-355     2297.0000000        2444.6728516       -147.67285156    
 1397-55-361     2287.0000000        2445.3918457       -158.39184570    
 1397-61-14      2271.0000000        2445.5092773       -174.50927734    
 1397-66-12      2261.0000000        2444.5012207       -183.50122070    
 1397-71-68      2263.0000000        2443.3679199       -180.36791992    
 1397-71-365     2262.0000000        2443.2724609       -181.27246094    
 1426-12-95      2393.0000000        2419.0839844       -26.083984375    
 1426-17-82      2374.0000000        2419.9509277       -45.950927734    
 1426-22-80      2353.0000000        2421.0720215       -68.072021484    
 1426-26-288     2333.0000000        2421.9047852       -88.904785156    
 1426-42-356     2289.0000000        2423.5405273       -134.54052734    
 1426-48-355     2280.0000000        2427.1066895       -147.10668945    
 1426-55-350     2272.0000000        2426.7907715       -154.79077148    
 1426-61-13      2254.0000000        2425.7634277       -171.76342773    
 1426-66-12      2248.0000000        2424.3000488       -176.30004883    
 1426-71-54      2251.0000000        2423.1848145       -172.18481445    
 1426-71-365     2251.0000000        2423.0505371       -172.05053711    
 1411-56-25      2327.0000000        2425.9736328       -98.973632812    
 1411-61-42      2256.0000000        2424.8239746       -168.82397461    
 1411-66-12      2261.0000000        2423.3129883       -162.31298828    
 1411-71-54      2264.0000000        2422.0576172       -158.05761719    
 1411-71-365     2265.0000000        2421.9169922       -156.91699219    
 1409-61-42      2252.0000000        2425.9833984       -173.98339844    
 1409-66-12      2255.0000000        2424.4819336       -169.48193359    
 1409-71-54      2259.0000000        2423.2246094       -164.22460938    
 1409-71-365     2259.0000000        2423.0859375       -164.08593750    
 1390-71-68      2273.0000000        2420.6052246       -147.60522461    
 1390-71-362     2274.0000000        2420.4680176       -146.46801758    
 1416-71-1       2345.0000000        2400.9277344       -55.927734375    
 1372-66-5       2260.0000000        2430.5783691       -170.57836914    
 1372-71-68      2266.0000000        2429.3183594       -163.31835938    
 1372-71-362     2267.0000000        2429.1777344       -162.17773438    
 1312-12-265     2428.0000000        2442.5288086       -14.528808594    
 1332-71-13      2268.0000000        2453.6567383       -185.65673828    
 1332-71-362     2269.0000000        2453.5451660       -184.54516602    
 1359-32-69      2369.0000000        2478.4748535       -109.47485352    
 1359-37-95      2357.0000000        2478.7822266       -121.78222656    
 1359-42-356     2342.0000000        2478.7177734       -136.71777344    
 1359-48-334     2340.0000000        2480.1486816       -140.14868164    
 1359-56-19      2336.0000000        2481.6723633       -145.67236328    
 1359-60-321     2328.0000000        2482.4716797       -154.47167969    
 1359-65-298     2316.0000000        2482.4550781       -166.45507812    
 1359-71-14      2311.0000000        2481.8742676       -170.87426758    
 1359-71-365     2310.0000000        2481.8149414       -171.81494141    
 1333-7-28       2444.0000000        2479.4160156       -35.416015625    
 1333-12-95      2441.0000000        2479.5646973       -38.564697266    
 1333-17-87      2429.0000000        2479.9228516       -50.922851562    
 1333-32-69      2376.0000000        2482.6833496       -106.68334961    
 1333-56-19      2338.0000000        2486.0114746       -148.01147461    
 1333-61-60      2326.0000000        2486.7805176       -160.78051758    
 1333-66-25      2318.0000000        2486.7431641       -168.74316406    
 1355-32-69      2393.0000000        2492.0329590       -99.032958984    
 1355-37-95      2380.0000000        2492.3593750       -112.35937500    
 1355-42-356     2364.0000000        2492.3332520       -128.33325195    
 1355-48-344     2361.0000000        2493.6486816       -132.64868164    
 1355-56-19      2358.0000000        2495.1677246       -137.16772461    
 1355-61-60      2344.0000000        2496.0661621       -152.06616211    
 1355-66-25      2340.0000000        2496.2099609       -156.20996094    
 1355-71-40      2336.0000000        2495.9570312       -159.95703125    
 1295-32-69      2390.0000000        2493.2150879       -103.21508789    
 1295-37-95      2371.0000000        2493.7199707       -122.71997070    
 1295-42-355     2349.0000000        2493.7631836       -144.76318359    
 1295-56-19      2349.0000000        2496.3112793       -147.31127930    
 1295-61-60      2339.0000000        2497.1264648       -158.12646484    
 1289-48-344     2368.0000000        2501.3923340       -133.39233398    
 1289-56-20      2364.0000000        2502.9104004       -138.91040039    
 1289-61-60      2350.0000000        2503.7692871       -153.76928711    
 1289-66-25      2344.0000000        2504.0390625       -160.03906250    
 1289-71-40      2343.0000000        2503.8715820       -160.87158203    
 1856-33-79      2578.0000000        2579.6987305       -1.6987304688    
 1866-42-356     2576.0000000        2587.9587402       -11.958740234    
 1866-48-348     2579.0000000        2607.3718262       -28.371826172    
 1866-55-347     2585.0000000        2606.0493164       -21.049316406    
 1866-60-356     2566.0000000        2595.7768555       -29.776855469    
 1866-66-5       2562.0000000        2590.5317383       -28.531738281    
 1866-71-39      2575.0000000        2587.8615723       -12.861572266    
 1866-71-41      2576.0000000        2587.8930664       -11.893066406    
 1866-71-365     2573.0000000        2590.4560547       -17.456054688    
 1859-55-347     2584.0000000        2606.0935059       -22.093505859    
 1859-66-33      2569.0000000        2591.1093750       -22.109375000    
 1860-42-356     2576.0000000        2587.9772949       -11.977294922    
 1860-48-348     2583.0000000        2607.4665527       -24.466552734    
 1860-56-5       2587.0000000        2605.5317383       -18.531738281    
 1860-66-5       2561.0000000        2590.4853516       -29.485351562    
 1860-71-365     2572.0000000        2590.4118652       -18.411865234    
 1867-66-5       2564.0000000        2589.9226074       -25.922607422    
 1867-71-365     2574.0000000        2589.8564453       -15.856445312    
 1855-66-5       2562.0000000        2590.4633789       -28.463378906    
 1855-71-365     2571.0000000        2590.3940430       -19.394042969    
 1876-42-362     2512.0000000        2570.4196777       -58.419677734    
 1876-48-338     2505.0000000        2576.0717773       -71.071777344    
 1876-56-16      2507.0000000        2576.3037109       -69.303710938    
 1750-56-16      2540.0000000        2580.4499512       -40.449951172    
 1750-61-53      2526.0000000        2577.1166992       -51.116699219    
 1750-66-27      2459.0000000        2573.9028320       -114.90283203    
 1730-56-16      2519.0000000        2582.2778320       -63.277832031    
 1730-61-53      2488.0000000        2578.7509766       -90.750976562    
 1730-66-31      2447.0000000        2575.2829590       -128.28295898    
 1835-22-32      2566.0000000        2584.1286621       -18.128662109    
 1835-27-12      2578.0000000        2586.9118652       -8.9118652344    
 1831-1-365      2572.0000000        2582.8969727       -10.896972656    
 1801-22-32      2571.0000000        2579.2907715       -8.2907714844    
 1801-27-12      2578.0000000        2581.9709473       -3.9709472656    
 1739-56-16      2543.0000000        2581.9980469       -38.998046875    
 1739-61-53      2512.0000000        2578.5856934       -66.585693359    
 1739-66-27      2470.0000000        2575.2243652       -105.22436523    
 1725-66-12      2427.0000000        2543.3808594       -116.38085938    
 1725-71-365     2444.0000000        2543.4777832       -99.477783203    
 1761-27-17      2560.0000000        2560.8386230      -0.83862304688    
 1761-32-60      2546.0000000        2558.3608398       -12.360839844    
 1761-42-355     2538.0000000        2560.6618652       -22.661865234    
 1761-48-350     2547.0000000        2567.8867188       -20.886718750    
 1761-56-6       2565.0000000        2568.0742188       -3.0742187500    
 1761-66-1       2523.0000000        2562.1186523       -39.118652344    
 1761-71-35      2531.0000000        2560.6447754       -29.644775391    
 1761-71-365     2527.0000000        2562.3032227       -35.303222656    
 1774-48-365     2512.0000000        2569.0761719       -57.076171875    
 1774-56-5       2517.0000000        2569.2492676       -52.249267578    
 1774-66-1       2441.0000000        2562.6044922       -121.60449219    
 1774-71-35      2455.0000000        2561.3039551       -106.30395508    
 1774-71-365     2470.0000000        2562.7561035       -92.756103516    
 1740-1-365      2556.0000000        2555.7397461       0.26025390625    
 1740-16-356     2564.0000000        2557.2490234        6.7509765625    
 1853-42-357     2500.0000000        2535.4968262       -35.496826172    
 1850-48-338     2494.0000000        2539.2724609       -45.272460938    
 1850-56-16      2506.0000000        2539.6313477       -33.631347656    
 1850-66-31      2432.0000000        2533.0036621       -101.00366211    
 1850-71-40      2432.0000000        2531.7712402       -99.771240234    
 1895-16-362     2491.0000000        2509.3747559       -18.374755859    
 1895-22-32      2496.0000000        2510.8251953       -14.825195312    
 1895-27-12      2495.0000000        2512.9077148       -17.907714844    
 1737-43-32      2452.0000000        2519.0681152       -67.068115234    
 1737-48-355     2449.0000000        2527.4860840       -78.486083984    
 1737-56-5       2450.0000000        2527.9458008       -77.945800781    
 1737-61-26      2416.0000000        2524.4555664       -108.45556641    
 1737-66-28      2390.0000000        2520.8205566       -130.82055664    
 1737-71-35      2403.0000000        2520.6552734       -117.65527344    
 1737-71-365     2410.0000000        2520.7985840       -110.79858398    
 1802-1-276      2517.0000000        2524.0192871       -7.0192871094    
 1802-4-104      2524.0000000        2525.6093750       -1.6093750000    
 1746-42-355     2492.0000000        2529.2714844       -37.271484375    
 1746-48-355     2485.0000000        2537.9265137       -52.926513672    
 1746-56-11      2478.0000000        2538.5329590       -60.532958984    
 1746-61-33      2448.0000000        2534.8054199       -86.805419922    
 1746-66-28      2423.0000000        2531.0834961       -108.08349609    
 1746-71-33      2429.0000000        2530.6586914       -101.65869141    
 1746-71-344     2436.0000000        2531.0524902       -95.052490234    
 1940-42-355     2460.0000000        2502.7102051       -42.710205078    
 1940-48-355     2452.0000000        2509.8269043       -57.826904297    
 1940-56-5       2458.0000000        2510.5319824       -52.531982422    
 1940-66-1       2399.0000000        2503.7395020       -104.73950195    
 1940-71-35      2414.0000000        2502.5927734       -88.592773438    
 1940-71-365     2425.0000000        2503.9108887       -78.910888672    
 1925-48-355     2454.0000000        2508.9299316       -54.929931641    
 1925-56-5       2452.0000000        2509.7622070       -57.762207031    
 1925-61-26      2430.0000000        2506.2351074       -76.235107422    
 1925-66-32      2401.0000000        2503.1599121       -102.15991211    
 1925-71-35      2415.0000000        2501.8041992       -86.804199219    
 1925-71-365     2425.0000000        2503.0615234       -78.061523438    
 1733-2-93       2454.0000000        2488.4052734       -34.405273438    
 1732-12-114     2492.0000000        2493.5158691       -1.5158691406    
 1732-16-362     2487.0000000        2494.3588867       -7.3588867188    
 1732-27-90      2488.0000000        2497.1538086       -9.1538085938    
 1732-32-60      2477.0000000        2497.1831055       -20.183105469    
 1732-42-357     2451.0000000        2498.0986328       -47.098632812    
 1732-48-341     2442.0000000        2505.5151367       -63.515136719    
 1732-56-16      2442.0000000        2506.0356445       -64.035644531    
 1809-48-355     2456.0000000        2518.8833008       -62.883300781    
 1809-55-346     2445.0000000        2519.6030273       -74.603027344    
 1809-60-364     2416.0000000        2515.9228516       -99.922851562    
 1809-66-28      2392.0000000        2512.4975586       -120.49755859    
 1809-71-39      2404.0000000        2512.1257324       -108.12573242    
 1809-71-365     2410.0000000        2512.4467773       -102.44677734    
 1731-56-5       2444.0000000        2519.8986816       -75.898681641    
 1731-60-351     2411.0000000        2516.6367188       -105.63671875    
 1731-65-364     2388.0000000        2513.0354004       -125.03540039    
 1731-71-35      2402.0000000        2513.0236816       -111.02368164    
 1731-71-365     2409.0000000        2513.0544434       -104.05444336    
 1915-56-13      2454.0000000        2498.5512695       -44.551269531    
 1915-60-351     2434.0000000        2494.9458008       -60.945800781    
 1915-66-32      2406.0000000        2491.8264160       -85.826416016    
 1915-71-55      2421.0000000        2491.0068359       -70.006835938    
 1915-71-365     2430.0000000        2491.8073730       -61.807373047    
 1869-1-365      2488.0000000        2478.5625000        9.4375000000    
 1884-1-52       2488.0000000        2487.5285645       0.47143554688    
 1910-66-32      2249.0000000        2473.7338867       -224.73388672    
 1910-71-365     2261.0000000        2473.7509766       -212.75097656    
 1887-66-32      2240.0000000        2472.0998535       -232.09985352    
 1887-71-365     2251.0000000        2472.0136719       -221.01367188    
 1854-66-48      2237.0000000        2473.6899414       -236.68994141    
 1885-7-322      2430.0000000        2473.5095215       -43.509521484    
 1885-12-116     2429.0000000        2473.0510254       -44.051025391    
 1790-66-48      2237.0000000        2483.2348633       -246.23486328    
 1836-66-48      2246.0000000        2470.0661621       -224.06616211    
 1783-66-48      2233.0000000        2472.3371582       -239.33715820    
 1846-48-355     2447.0000000        2499.4145508       -52.414550781    
 1846-55-327     2443.0000000        2500.4345703       -57.434570312    
 1846-61-14      2423.0000000        2497.4201660       -74.420166016    
 1846-66-48      2393.0000000        2494.3063965       -101.30639648    
 1846-71-365     2419.0000000        2494.1811523       -75.181152344    
 1845-48-355     2280.0000000        2493.1367188       -213.13671875    
 1845-55-360     2260.0000000        2494.1281738       -234.12817383    
 1845-61-11      2236.0000000        2491.3103027       -255.31030273    
 1845-66-32      2236.0000000        2488.2087402       -252.20874023    
 1845-71-365     2248.0000000        2488.1225586       -240.12255859    
 1916-56-5       2280.0000000        2474.9353027       -194.93530273    
 1916-66-32      2252.0000000        2468.8713379       -216.87133789    
 1916-71-365     2266.0000000        2468.9484863       -202.94848633    
 1911-56-5       2277.0000000        2474.7958984       -197.79589844    
 1911-66-32      2249.0000000        2468.8730469       -219.87304688    
 1911-71-365     2265.0000000        2468.9299316       -203.92993164    
 1897-12-114     2444.0000000        2466.0319824       -22.031982422    
 1897-27-10      2398.0000000        2470.0966797       -72.096679688    
 1893-66-32      2242.0000000        2468.1640625       -226.16406250    
 1893-71-365     2255.0000000        2468.1088867       -213.10888672    
 1917-48-355     2276.0000000        2454.7976074       -178.79760742    
 1917-66-32      2225.0000000        2451.3903809       -226.39038086    
 1917-71-344     2242.0000000        2451.2839355       -209.28393555    
 1672-66-45      2225.0000000        2461.4199219       -236.41992188    
 1647-12-332     2378.0000000        2455.7014160       -77.701416016    
 1647-16-355     2370.0000000        2456.3105469       -86.310546875    
 1659-22-81      2389.0000000        2461.2175293       -72.217529297    
 1659-42-356     2300.0000000        2462.7973633       -162.79736328    
 1659-48-355     2266.0000000        2467.5456543       -201.54565430    
 1659-56-6       2251.0000000        2468.2319336       -217.23193359    
 1659-60-354     2231.0000000        2467.9018555       -236.90185547    
 1659-66-45      2228.0000000        2466.2768555       -238.27685547    
 1659-71-365     2239.0000000        2465.7856445       -226.78564453    
 1682-48-355     2254.0000000        2457.5869141       -203.58691406    
 1707-42-355     2288.0000000        2452.4218750       -164.42187500    
 1707-48-355     2254.0000000        2457.5869141       -203.58691406    
 1707-56-26      2242.0000000        2458.4892578       -216.48925781    
 1707-60-354     2220.0000000        2457.7639160       -237.76391602    
 1707-66-45      2218.0000000        2455.5864258       -237.58642578    
 1707-71-365     2230.0000000        2455.0927734       -225.09277344    
 1712-42-355     2287.0000000        2450.9887695       -163.98876953    
 1712-48-355     2252.0000000        2456.1831055       -204.18310547    
 1712-56-5       2241.0000000        2457.0849609       -216.08496094    
 1712-61-14      2219.0000000        2456.3427734       -237.34277344    
 1712-65-355     2216.0000000        2454.2087402       -238.20874023    
 1712-71-67      2227.0000000        2453.8312988       -226.83129883    
 1712-71-365     2230.0000000        2453.6298828       -223.62988281    
 1671-22-79      2383.0000000        2454.6123047       -71.612304688    
 1671-42-355     2291.0000000        2455.5031738       -164.50317383    
 1671-48-355     2257.0000000        2460.4902344       -203.49023438    
 1671-56-20      2242.0000000        2461.3081055       -219.30810547    
 1627-22-82      2391.0000000        2460.7712402       -69.771240234    
 1627-32-90      2353.0000000        2463.0021973       -110.00219727    
 1627-37-90      2326.0000000        2462.2958984       -136.29589844    
 1627-42-356     2305.0000000        2462.3481445       -157.34814453    
 1627-48-350     2268.0000000        2467.0498047       -199.04980469    
 1627-55-360     2254.0000000        2467.7788086       -213.77880859    
 1627-61-12      2234.0000000        2467.6306152       -233.63061523    
 1627-66-1       2232.0000000        2465.9624023       -233.96240234    
 1627-71-53      2240.0000000        2465.5986328       -225.59863281    
 1627-71-365     2243.0000000        2465.3918457       -222.39184570    
 1607-1-276      2426.0000000        2457.4873047       -31.487304688    
 1607-6-269      2424.0000000        2457.8747559       -33.874755859    
 1607-11-269     2418.0000000        2457.9831543       -39.983154297    
 1598-66-45      2231.0000000        2469.1083984       -238.10839844    
 1643-27-90      2380.0000000        2487.1955566       -107.19555664    
 1632-22-82      2403.0000000        2470.2902832       -67.290283203    
 1632-27-15      2382.0000000        2471.6889648       -89.688964844    
 1632-32-77      2361.0000000        2472.6108398       -111.61083984    
 1632-42-356     2316.0000000        2472.1718750       -156.17187500    
 1632-48-355     2282.0000000        2477.0068359       -195.00683594    
 1632-56-6       2266.0000000        2477.6406250       -211.64062500    
 1632-60-354     2245.0000000        2477.4340820       -232.43408203    
 1632-66-48      2242.0000000        2475.6982422       -233.69824219    
 1632-71-53      2250.0000000        2475.4675293       -225.46752930    
 1632-71-365     2253.0000000        2475.3181152       -222.31811523    
 1677-32-64      2477.0000000        2509.5952148       -32.595214844    
 1677-42-355     2451.0000000        2510.4689941       -59.468994141    
 1677-48-351     2439.0000000        2518.2487793       -79.248779297    
 1677-56-5       2443.0000000        2518.3842773       -75.384277344    
 1677-61-26      2407.0000000        2515.9606934       -108.96069336    
 1677-66-39      2386.0000000        2513.0178223       -127.01782227    
 1677-71-35      2403.0000000        2513.2033691       -110.20336914    
 1677-71-365     2408.0000000        2512.9287109       -104.92871094    
 1646-27-90      2489.0000000        2500.3979492       -11.397949219    
 1646-32-64      2482.0000000        2501.0317383       -19.031738281    
 1646-42-355     2446.0000000        2501.6406250       -55.640625000    
 1646-48-350     2434.0000000        2508.7609863       -74.760986328    
 1646-56-5       2437.0000000        2509.0200195       -72.020019531    
 1646-61-26      2402.0000000        2507.0461426       -105.04614258    
 1646-66-39      2382.0000000        2504.3913574       -122.39135742    
 1646-71-39      2400.0000000        2504.4777832       -104.47778320    
 1646-71-365     2406.0000000        2504.2507324       -98.250732422    
 1602-42-355     2336.0000000        2502.9431152       -166.94311523    
 1602-48-350     2264.0000000        2508.8867188       -244.88671875    
 1602-71-35      2252.0000000        2506.5075684       -254.50756836    
 1602-71-365     2254.0000000        2506.2534180       -252.25341797    
 1601-42-355     2335.0000000        2503.8857422       -168.88574219    
 1601-48-350     2261.0000000        2509.8276367       -248.82763672    
 1601-55-348     2268.0000000        2510.1982422       -242.19824219    
 1601-61-14      2211.0000000        2509.2189941       -298.21899414    
 1601-66-19      2208.0000000        2507.3562012       -299.35620117    
 1601-71-35      2254.0000000        2507.4284668       -253.42846680    
 1601-71-365     2255.0000000        2506.6628418       -251.66284180    
 1674-10-253     2532.0000000        2523.5681152        8.4318847656    
 1676-42-355     2484.0000000        2528.0729980       -44.072998047    
 1676-48-350     2487.0000000        2536.8684082       -49.868408203    
 1676-55-349     2473.0000000        2537.4382324       -64.438232422    
 1676-61-27      2442.0000000        2533.9123535       -91.912353516    
 1676-66-19      2415.0000000        2530.3437500       -115.34375000    
 1676-71-35      2419.0000000        2530.4001465       -111.40014648    
 1676-71-365     2429.0000000        2530.3476562       -101.34765625    
 1645-32-77      2486.0000000        2518.1435547       -32.143554688    
 1645-42-355     2454.0000000        2519.1398926       -65.139892578    
 1645-55-360     2447.0000000        2527.3066406       -80.306640625    
 1645-60-356     2411.0000000        2524.8676758       -113.86767578    
 1645-66-1       2384.0000000        2521.9196777       -137.91967773    
 1645-71-35      2400.0000000        2522.1479492       -122.14794922    
 1645-71-365     2406.0000000        2521.8383789       -115.83837891    
 1604-32-77      2471.0000000        2511.1772461       -40.177246094    
 1604-42-355     2439.0000000        2511.5961914       -72.596191406    
 1604-48-350     2422.0000000        2518.0493164       -96.049316406    
 1604-55-360     2425.0000000        2518.1364746       -93.136474609    
 1604-60-362     2397.0000000        2517.0595703       -120.05957031    
 1604-71-48      2392.0000000        2515.3471680       -123.34716797    
 1604-71-365     2295.0000000        2515.0471191       -220.04711914    
 1640-55-360     2486.0000000        2565.9968262       -79.996826172    
 1640-60-356     2455.0000000        2562.4392090       -107.43920898    
 1640-66-19      2415.0000000        2558.8112793       -143.81127930    
 1640-71-22      2426.0000000        2558.6796875       -132.67968750    
 1640-71-365     2433.0000000        2558.6879883       -125.68798828    
 1720-66-5       2502.0000000        2585.2199707       -83.219970703    
 1720-71-22      2498.0000000        2584.0559082       -86.055908203    
 1720-71-365     2505.0000000        2585.1184082       -80.118408203    
 1706-33-318     2550.0000000        2566.6352539       -16.635253906    
 1669-7-32       2537.0000000        2557.7658691       -20.765869141    
 1669-12-106     2531.0000000        2556.6206055       -25.620605469    
 1669-32-68      2527.0000000        2559.1662598       -32.166259766    
 1669-38-60      2519.0000000        2559.3615723       -40.361572266    
 1669-42-354     2509.0000000        2561.4531250       -52.453125000    
 1622-32-68      2527.0000000        2558.8247070       -31.824707031    
 1622-38-60      2519.0000000        2559.1188965       -40.118896484    
 1622-42-354     2506.0000000        2560.6079102       -54.607910156    
 1622-48-341     2497.0000000        2569.9470215       -72.947021484    
 1622-56-17      2489.0000000        2570.2993164       -81.299316406    
 1622-61-54      2461.0000000        2567.5708008       -106.57080078    
 1622-66-32      2420.0000000        2564.5937500       -144.59375000    
 1556-61-27      2456.0000000        2585.1477051       -129.14770508    
 1556-66-5       2432.0000000        2584.0429688       -152.04296875    
 1556-71-22      2436.0000000        2583.4560547       -147.45605469    
 1556-71-365     2439.0000000        2583.3535156       -144.35351562    
 1553-7-336      2538.0000000        2538.4255371      -0.42553710938    
 1553-12-106     2533.0000000        2538.3769531       -5.3769531250    
 1553-42-354     2503.0000000        2542.3076172       -39.307617188    
 1553-48-341     2490.0000000        2547.8864746       -57.886474609    
 1568-33-234     2528.0000000        2541.2905273       -13.290527344    
 1568-48-341     2497.0000000        2547.7666016       -50.766601562    
 1594-71-22      2425.0000000        2540.3662109       -115.36621094    
 1594-71-365     2432.0000000        2540.0939941       -108.09399414    
 1563-32-68      2526.0000000        2531.9409180       -5.9409179688    
 1563-37-48      2507.0000000        2532.2275391       -25.227539062    
 1563-42-355     2500.0000000        2532.6503906       -32.650390625    
 1563-48-348     2488.0000000        2538.6257324       -50.625732422    
 1563-56-6       2480.0000000        2538.8562012       -58.856201172    
 1553-15-99      2533.0000000        2538.3842773       -5.3842773438    
 1522-42-355     2506.0000000        2546.4750977       -40.475097656    
 1522-48-348     2488.0000000        2551.0607910       -63.060791016    
 1527-55-354     2475.0000000        2554.9899902       -79.989990234    
 1527-61-54      2451.0000000        2555.2341309       -104.23413086    
 1527-66-32      2420.0000000        2554.7534180       -134.75341797    
 1527-71-22      2426.0000000        2554.5480957       -128.54809570    
 1527-71-365     2430.0000000        2552.2287598       -122.22875977    
 1589-42-355     2468.0000000        2528.9394531       -60.939453125    
 1589-48-350     2453.0000000        2535.3159180       -82.315917969    
 1589-55-360     2454.0000000        2535.4299316       -81.429931641    
 1589-61-14      2417.0000000        2534.7055664       -117.70556641    
 1589-66-32      2394.0000000        2533.3061523       -139.30615234    
 1589-71-22      2404.0000000        2533.3789062       -129.37890625    
 1589-71-365     2408.0000000        2533.1140137       -125.11401367    
 1586-32-68      2475.0000000        2515.8366699       -40.836669922    
 1586-48-356     2414.0000000        2521.9741211       -107.97412109    
 1586-56-6       2423.0000000        2522.2429199       -99.242919922    
 1586-60-356     2377.0000000        2521.6303711       -144.63037109    
 1586-66-1       2371.0000000        2520.3190918       -149.31909180    
 1586-71-35      2390.0000000        2520.4245605       -130.42456055    
 1586-71-365     2393.0000000        2520.1286621       -127.12866211    
 1532-42-355     2430.0000000        2517.8403320       -87.840332031    
 1532-48-348     2407.0000000        2522.5178223       -115.51782227    
 1532-55-354     2420.0000000        2523.1416016       -103.14160156    
 1532-61-28      2365.0000000        2523.2551270       -158.25512695    
 1532-66-46      2371.0000000        2522.4763184       -151.47631836    
 1532-71-22      2384.0000000        2522.6437988       -138.64379883    
 1532-71-365     2386.0000000        2522.3945312       -136.39453125    
 1534-42-355     2432.0000000        2512.3264160       -80.326416016    
 1534-48-348     2408.0000000        2516.5153809       -108.51538086    
 1534-55-360     2413.0000000        2517.3894043       -104.38940430    
 1534-61-5       2374.0000000        2517.6711426       -143.67114258    
 1534-66-46      2373.0000000        2516.8552246       -143.85522461    
 1534-71-35      2386.0000000        2517.0854492       -131.08544922    
 1534-71-365     2388.0000000        2516.8442383       -128.84423828    
 1524-42-355     2467.0000000        2527.9846191       -60.984619141    
 1524-48-348     2449.0000000        2532.4025879       -83.402587891    
 1524-56-6       2450.0000000        2533.1311035       -83.131103516    
 1524-60-356     2418.0000000        2533.4399414       -115.43994141    
 1524-66-1       2399.0000000        2533.0139160       -134.01391602    
 1524-71-48      2406.0000000        2533.0461426       -127.04614258    
 1524-71-365     2408.0000000        2532.8874512       -124.88745117    
 1561-21-340     2488.0000000        2503.0048828       -15.004882812    
 1561-32-64      2474.0000000        2505.7714844       -31.771484375    
 1561-42-355     2435.0000000        2505.7387695       -70.738769531    
 1561-48-350     2413.0000000        2510.5156250       -97.515625000    
 1561-55-360     2415.0000000        2511.1567383       -96.156738281    
 1561-61-26      2375.0000000        2511.0490723       -136.04907227    
 1561-66-46      2370.0000000        2509.7851562       -139.78515625    
 1561-71-39      2389.0000000        2509.9440918       -120.94409180    
 1561-71-365     2389.0000000        2509.6970215       -120.69702148    
 1571-2-94       2432.0000000        2490.9494629       -58.949462891    
 1572-48-356     2300.0000000        2498.3608398       -198.36083984    
 1572-56-6       2274.0000000        2499.0844727       -225.08447266    
 1572-61-26      2244.0000000        2499.0588379       -255.05883789    
 1572-66-12      2245.0000000        2497.6018066       -252.60180664    
 1572-71-48      2258.0000000        2497.5712891       -239.57128906    
 1572-71-365     2261.0000000        2497.4035645       -236.40356445    
 1549-21-319     2437.0000000        2499.1267090       -62.126708984    
 1549-56-6       2281.0000000        2507.0134277       -226.01342773    
 1549-60-356     2224.0000000        2507.0869141       -283.08691406    
 1549-65-350     2214.0000000        2505.9750977       -291.97509766    
 1549-71-67      2262.0000000        2506.0007324       -244.00073242    
 1549-71-365     2261.0000000        2505.8054199       -244.80541992    
 1547-27-62      2388.0000000        2496.8369141       -108.83691406    
 1521-42-355     2372.0000000        2498.9641113       -126.96411133    
 1521-48-350     2352.0000000        2502.3967285       -150.39672852    
 1521-55-360     2338.0000000        2503.5783691       -165.57836914    
 1521-60-356     2321.0000000        2504.2272949       -183.22729492    
 1521-66-46      2311.0000000        2503.2648926       -192.26489258    
 1521-71-48      2316.0000000        2503.4343262       -187.43432617    
 1521-71-365     2317.0000000        2503.2731934       -186.27319336    
 1573-48-356     2281.0000000        2480.9738770       -199.97387695    
 1573-55-360     2268.0000000        2481.8198242       -213.81982422    
 1573-60-357     2244.0000000        2482.1169434       -238.11694336    
 1573-66-54      2243.0000000        2480.8298340       -237.82983398    
 1573-71-19      2248.0000000        2480.6477051       -232.64770508    
 1573-71-365     2252.0000000        2480.4870605       -228.48706055    
 1545-32-77      2351.0000000        2478.8652344       -127.86523438    
 1545-42-356     2319.0000000        2478.3015137       -159.30151367    
 1545-48-350     2289.0000000        2482.0217285       -193.02172852    
 1545-56-11      2270.0000000        2482.9968262       -212.99682617    
 1545-61-14      2247.0000000        2483.4895020       -236.48950195    
 1545-66-54      2248.0000000        2482.3298340       -234.32983398    
 1545-71-19      2254.0000000        2482.1623535       -228.16235352    
 1545-71-365     2257.0000000        2481.9985352       -224.99853516    
 1535-42-356     2320.0000000        2481.9887695       -161.98876953    
 1535-48-350     2292.0000000        2485.5715332       -193.57153320    
 1535-56-11      2272.0000000        2486.6000977       -214.60009766    
 1535-60-357     2251.0000000        2487.1228027       -236.12280273    
 1535-66-47      2250.0000000        2486.0554199       -236.05541992    
 1535-71-19      2256.0000000        2485.9304199       -229.93041992    
 1535-71-365     2259.0000000        2485.7944336       -226.79443359    
 1507-42-356     2326.0000000        2481.3422852       -155.34228516    
 1507-48-350     2302.0000000        2484.4702148       -182.47021484    
 1507-56-11      2271.0000000        2485.6774902       -214.67749023    
 1507-60-357     2251.0000000        2486.3991699       -235.39916992    
 1507-66-54      2262.0000000        2485.5625000       -223.56250000    
 1507-71-19      2264.0000000        2485.4516602       -221.45166016    
 1507-71-365     2267.0000000        2485.2651367       -218.26513672    
 1523-16-54      2421.0000000        2476.8806152       -55.880615234    
 1575-22-81      2393.0000000        2467.5366211       -74.536621094    
 1575-32-77      2347.0000000        2469.9970703       -122.99707031    
 1575-42-356     2309.0000000        2469.4260254       -160.42602539    
 1575-48-350     2282.0000000        2473.5363770       -191.53637695    
 1575-55-343     2259.0000000        2474.3659668       -215.36596680    
 1575-61-11      2235.0000000        2474.6362305       -239.63623047    
 1575-71-365     2245.0000000        2472.8203125       -227.82031250    
 1577-22-81      2388.0000000        2459.5307617       -71.530761719    
 1580-42-355     2298.0000000        2461.0705566       -163.07055664    
 1580-48-355     2264.0000000        2465.2075195       -201.20751953    
 1580-56-13      2247.0000000        2466.0996094       -219.09960938    
 1580-61-12      2227.0000000        2466.2590332       -239.25903320    
 1580-66-54      2229.0000000        2464.8666992       -235.86669922    
 1580-71-365     2239.0000000        2464.2761230       -225.27612305    
 1536-17-79      2407.0000000        2457.6777344       -50.677734375    
 1536-22-82      2382.0000000        2459.0075684       -77.007568359    
 1536-32-77      2338.0000000        2461.4045410       -123.40454102    
 1536-42-356     2301.0000000        2460.7556152       -159.75561523    
 1536-48-350     2273.0000000        2464.5102539       -191.51025391    
 1536-55-340     2255.0000000        2465.4362793       -210.43627930    
 1536-66-54      2231.0000000        2464.6655273       -233.66552734    
 1536-71-365     2239.0000000        2464.0217285       -225.02172852    
 1516-42-356     2308.0000000        2468.0917969       -160.09179688    
 1516-48-350     2286.0000000        2471.5007324       -185.50073242    
 1516-56-11      2261.0000000        2472.5715332       -211.57153320    
 1516-61-27      2234.0000000        2473.1245117       -239.12451172    
 1516-66-54      2242.0000000        2472.1584473       -230.15844727    
 1516-71-365     2249.0000000        2471.6018066       -222.60180664    
 1528-22-82      2382.0000000        2468.2194824       -86.219482422    
 1528-27-63      2368.0000000        2469.6520996       -101.65209961    
 1528-32-77      2344.0000000        2470.7524414       -126.75244141    
 1528-65-350     2242.0000000        2474.3193359       -232.31933594    
 1528-71-365     2251.0000000        2473.7280273       -222.72802734    
 1514-42-356     2309.0000000        2474.4226074       -165.42260742    
 1514-48-350     2287.0000000        2477.7211914       -190.72119141    
 1514-55-340     2267.0000000        2478.8122559       -211.81225586    
 1514-61-27      2237.0000000        2479.4936523       -242.49365234    
 1514-66-54      2245.0000000        2478.5717773       -233.57177734    
 1514-71-48      2248.0000000        2478.3161621       -230.31616211    
 1514-71-365     2252.0000000        2478.1301270       -226.13012695    
 1495-42-356     2327.0000000        2483.7514648       -156.75146484    
 1495-48-350     2304.0000000        2486.6943359       -182.69433594    
 1495-55-343     2283.0000000        2487.9606934       -204.96069336    
 1495-61-41      2259.0000000        2488.8500977       -229.85009766    
 1495-66-54      2265.0000000        2488.0112305       -223.01123047    
 1495-71-19      2266.0000000        2487.9504395       -221.95043945    
 1495-71-365     2269.0000000        2487.7629395       -218.76293945    
 1484-37-343     2324.0000000        2481.9687500       -157.96875000    
 1484-42-356     2322.0000000        2481.8808594       -159.88085938    
 1484-56-11      2270.0000000        2486.0068359       -216.00683594    
 1484-60-357     2250.0000000        2486.8237305       -236.82373047    
 1484-66-53      2257.0000000        2486.1557617       -229.15576172    
 1484-71-19      2258.0000000        2486.0476074       -228.04760742    
 1484-71-365     2265.0000000        2485.8474121       -220.84741211    
 1463-56-34      2297.0000000        2486.6301270       -189.63012695    
 1463-60-357     2276.0000000        2487.6103516       -211.61035156    
 1463-66-53      2277.0000000        2487.1882324       -210.18823242    
 1463-71-19      2276.0000000        2487.0800781       -211.08007812    
 1463-71-365     2278.0000000        2486.8376465       -208.83764648    
 1483-42-355     2409.0000000        2511.6545410       -102.65454102    
 1483-48-348     2395.0000000        2514.4450684       -119.44506836    
 1483-56-6       2382.0000000        2515.9990234       -133.99902344    
 1483-60-357     2365.0000000        2517.0634766       -152.06347656    
 1483-66-46      2356.0000000        2516.3010254       -160.30102539    
 1483-71-35      2356.0000000        2516.8315430       -160.83154297    
 1483-71-365     2356.0000000        2516.6401367       -160.64013672    
 1437-16-300     2470.0000000        2505.2497559       -35.249755859    
 1437-22-32      2449.0000000        2506.1999512       -57.199951172    
 1437-27-12      2454.0000000        2509.2180176       -55.218017578    
 1438-42-362     2383.0000000        2504.3657227       -121.36572266    
 1438-56-20      2383.0000000        2508.3366699       -125.33666992    
 1438-61-53      2377.0000000        2509.7265625       -132.72656250    
 1438-66-32      2368.0000000        2508.8430176       -140.84301758    
 1438-71-40      2365.0000000        2509.3249512       -144.32495117    
 1445-27-76      2457.0000000        2516.1203613       -59.120361328    
 1445-32-55      2454.0000000        2516.8181152       -62.818115234    
 1445-42-356     2429.0000000        2516.1499023       -87.149902344    
 1445-48-348     2419.0000000        2518.5468750       -99.546875000    
 1445-55-360     2412.0000000        2520.3100586       -108.31005859    
 1445-60-357     2392.0000000        2521.6018066       -129.60180664    
 1445-66-1       2384.0000000        2520.9318848       -136.93188477    
 1445-71-35      2382.0000000        2521.6459961       -139.64599609    
 1445-71-365     2381.0000000        2521.4506836       -140.45068359    
 1489-32-63      2477.0000000        2522.1049805       -45.104980469    
 1489-42-355     2437.0000000        2521.8552246       -84.855224609    
 1489-48-348     2415.0000000        2524.8024902       -109.80249023    
 1489-55-353     2411.0000000        2526.2204590       -115.22045898    
 1489-61-28      2385.0000000        2527.1882324       -142.18823242    
 1489-66-39      2384.0000000        2526.8623047       -142.86230469    
 1489-71-22      2387.0000000        2527.3366699       -140.33666992    
 1489-71-365     2387.0000000        2527.1347656       -140.13476562    
 1469-42-355     2488.0000000        2528.6533203       -40.653320312    
 1469-48-348     2462.0000000        2531.1430664       -69.143066406    
 1469-55-357     2471.0000000        2532.7175293       -61.717529297    
 1469-61-54      2436.0000000        2533.8649902       -97.864990234    
 1494-66-46      2436.0000000        2534.0085449       -98.008544922    
 1469-71-71      2437.0000000        2534.3764648       -97.376464844    
 1469-71-365     2438.0000000        2534.2399902       -96.239990234    
 1464-12-102     2539.0000000        2527.4726562        11.527343750    
 1464-32-63      2521.0000000        2531.6455078       -10.645507812    
 1464-42-354     2480.0000000        2531.6210938       -51.621093750    
 1439-37-90      2487.0000000        2532.9619141       -45.961914062    
 1439-42-355     2474.0000000        2532.8266602       -58.826660156    
 1439-48-348     2451.0000000        2534.9812012       -83.981201172    
 1439-56-6       2453.0000000        2536.6616211       -83.661621094    
 1439-61-28      2422.0000000        2537.9040527       -115.90405273    
 1439-66-46      2429.0000000        2538.0537109       -109.05371094    
 1439-71-71      2424.0000000        2538.8107910       -114.81079102    
 1439-71-365     2426.0000000        2538.6767578       -112.67675781    
 1435-42-355     2478.0000000        2536.3051758       -58.305175781    
 1435-48-348     2456.0000000        2538.2617188       -82.261718750    
 1435-55-361     2461.0000000        2539.9575195       -78.957519531    
 1435-61-11      2440.0000000        2541.2377930       -101.23779297    
 1435-66-49      2431.0000000        2541.5805664       -110.58056641    
 1435-71-71      2426.0000000        2542.4470215       -116.44702148    
 1435-71-365     2429.0000000        2542.3269043       -113.32690430    
 1449-37-30      2521.0000000        2580.6120605       -59.612060547    
 1414-7-138      2553.0000000        2597.5158691       -44.515869141    
 1414-32-64      2546.0000000        2599.0305176       -53.030517578    
 1414-38-60      2536.0000000        2600.1816406       -64.181640625    
 1414-42-354     2520.0000000        2600.6647949       -80.664794922    
 1379-71-356     2481.0000000        2605.8369141       -124.83691406    
 1425-2-94       2555.0000000        2562.1416016       -7.1416015625    
 1425-16-359     2546.0000000        2561.6416016       -15.641601562    
 1425-22-32      2543.0000000        2561.9274902       -18.927490234    
 1425-27-12      2529.0000000        2563.4516602       -34.451660156    
 1382-42-355     2493.0000000        2549.6274414       -56.627441406    
 1382-48-348     2482.0000000        2551.1325684       -69.132568359    
 1382-56-6       2480.0000000        2553.0874023       -73.087402344    
 1382-61-54      2469.0000000        2555.1289062       -86.128906250    
 1382-66-46      2455.0000000        2554.6330566       -99.633056641    
 1382-71-22      2447.0000000        2556.6076660       -109.60766602    
 1382-71-365     2447.0000000        2556.3911133       -109.39111328    
 1413-32-64      2464.0000000        2513.4638672       -49.463867188    
 1413-37-48      2451.0000000        2512.8820801       -61.882080078    
 1413-56-6       2328.0000000        2516.4001465       -188.40014648    
 1413-61-26      2424.0000000        2517.8662109       -93.866210938    
 1413-66-53      2410.0000000        2517.1528320       -107.15283203    
 1413-71-48      2401.0000000        2517.9777832       -116.97778320    
 1395-32-64      2455.0000000        2511.1027832       -56.102783203    
 1395-42-355     2427.0000000        2510.6528320       -83.652832031    
 1395-48-348     2425.0000000        2512.2976074       -87.297607422    
 1395-56-6       2418.0000000        2514.1076660       -96.107666016    
 1395-61-26      2413.0000000        2515.4191895       -102.41918945    
 1395-66-1       2404.0000000        2515.1191406       -111.11914062    
 1395-71-48      2398.0000000        2515.7727051       -117.77270508    
 1395-71-365     2396.0000000        2515.5725098       -119.57250977    
 1377-35-16      2432.0000000        2513.3779297       -81.377929688    
 1377-42-355     2423.0000000        2513.0395508       -90.039550781    
 1377-48-348     2420.0000000        2514.4438477       -94.443847656    
 1377-56-6       2414.0000000        2516.1704102       -102.17041016    
 1377-61-26      2408.0000000        2517.4040527       -109.40405273    
 1377-66-53      2401.0000000        2517.3811035       -116.38110352    
 1377-71-365     2394.0000000        2517.8444824       -123.84448242    
 1394-42-355     2458.0000000        2522.4409180       -64.440917969    
 1394-48-348     2453.0000000        2524.1535645       -71.153564453    
 1394-56-6       2446.0000000        2526.1464844       -80.146484375    
 1394-61-26      2438.0000000        2527.8386230       -89.838623047    
 1394-66-53      2427.0000000        2526.9782715       -99.978271484    
 1394-71-365     2418.0000000        2527.9899902       -109.98999023    
 1375-32-64      2490.0000000        2529.7734375       -39.773437500    
 1375-42-355     2474.0000000        2529.1860352       -55.186035156    
 1375-48-348     2471.0000000        2530.6025391       -59.602539062    
 1375-56-6       2464.0000000        2532.5227051       -68.522705078    
 1375-61-26      2457.0000000        2534.1794434       -77.179443359    
 1375-66-53      2446.0000000        2533.6638184       -87.663818359    
 1375-71-365     2437.0000000        2534.8422852       -97.842285156    
 1396-17-90      2452.0000000        2492.9826660       -40.982666016    
 1396-22-81      2425.0000000        2493.7250977       -68.725097656    
 1396-32-63      2415.0000000        2496.2290039       -81.229003906    
 1396-42-355     2389.0000000        2496.1701660       -107.17016602    
 1396-48-350     2386.0000000        2497.7827148       -111.78271484    
 1396-56-11      2379.0000000        2499.3593750       -120.35937500    
 1396-61-26      2365.0000000        2500.3942871       -135.39428711    
 1396-66-53      2360.0000000        2500.4013672       -140.40136719    
 1396-71-365     2352.0000000        2500.3195801       -148.31958008    
 1415-22-82      2419.0000000        2482.9748535       -63.974853516    
 1415-32-63      2387.0000000        2485.5229492       -98.522949219    
 1415-37-90      2374.0000000        2486.9255371       -112.92553711    
 1415-42-355     2364.0000000        2486.7583008       -122.75830078    
 1415-48-350     2358.0000000        2488.6628418       -130.66284180    
 1415-56-11      2354.0000000        2490.1459961       -136.14599609    
 1415-61-27      2338.0000000        2491.1083984       -153.10839844    
 1415-66-49      2329.0000000        2490.9675293       -161.96752930    
 1415-71-365     2322.0000000        2490.6652832       -168.66528320    
 1323-2-88       2488.0000000        2510.7497559       -22.749755859    
 1368-17-85      2462.0000000        2499.3051758       -37.305175781    
 1368-22-81      2445.0000000        2499.9416504       -54.941650391    
 1368-27-15      2436.0000000        2501.1865234       -65.186523438    
 1368-42-355     2399.0000000        2502.5222168       -103.52221680    
 1368-55-339     2388.0000000        2505.3662109       -117.36621094    
 1368-66-49      2374.0000000        2506.5769043       -132.57690430    
 1368-71-365     2362.0000000        2506.5722656       -144.57226562    
 1327-71-365     2447.0000000        2539.0705566       -92.070556641    
 1369-71-365     2420.0000000        2526.2299805       -106.22998047    
 1326-71-365     2429.0000000        2532.2490234       -103.24902344    
 1302-71-365     2442.0000000        2540.4494629       -98.449462891    
 1269-37-48      2533.0000000        2583.1032715       -50.103271484    
 1269-66-1       2514.0000000        2588.9692383       -74.969238281    
 1269-71-365     2500.0000000        2590.9951172       -90.995117188    
 1277-66-59      2516.0000000        2588.4765625       -72.476562500    
 1330-48-345     2523.0000000        2573.5939941       -50.593994141    
 1330-56-17      2523.0000000        2575.3344727       -52.334472656    
 1322-2-94       2574.0000000        2567.6352539        6.3647460938    
 1331-48-345     2533.0000000        2578.5710449       -45.571044922    
 1331-56-17      2532.0000000        2580.3764648       -48.376464844    
 1331-61-54      2528.0000000        2582.7277832       -54.727783203    
 1331-66-32      2513.0000000        2582.5527344       -69.552734375    
 1331-71-40      2500.0000000        2585.2290039       -85.229003906    
 1276-12-99      2565.0000000        2616.7841797       -51.784179688    
 1276-17-90      2570.0000000        2616.6276855       -46.627685547    
 1771-33-65      2644.0000000        2646.1755371       -2.1755371094    
 1880-42-356     2637.0000000        2645.7858887       -8.7858886719    
 1880-48-335     2636.0000000        2703.2670898       -67.267089844    
 1880-61-60      2632.0000000        2659.9916992       -27.991699219    
 1880-66-25      2633.0000000        2648.4240723       -15.424072266    
 1735-34-152     2644.0000000        2646.4497070       -2.4497070312    
 1840-16-362     2630.0000000        2622.6740723        7.3259277344    
 1794-3-36       2640.0000000        2643.1708984       -3.1708984375    
 1794-16-362     2640.0000000        2640.5966797      -0.59667968750    
 1794-27-12      2642.0000000        2645.0234375       -3.0234375000    
 1794-71-39      2640.0000000        2644.0205078       -4.0205078125    
 1794-71-365     2635.0000000        2646.0520020       -11.052001953    
 1796-16-362     2635.0000000        2630.4877930        4.5122070312    
 1806-55-348     2639.0000000        2676.0510254       -37.051025391    
 1806-60-364     2635.0000000        2651.0148926       -16.014892578    
 1806-66-1       2629.0000000        2640.0126953       -11.012695312    
 1806-71-39      2638.0000000        2638.1628418      -0.16284179688    
 1806-71-365     2635.0000000        2640.2604980       -5.2604980469    
 1788-55-348     2637.0000000        2678.7675781       -41.767578125    
 1788-60-364     2632.0000000        2652.6445312       -20.644531250    
 1788-66-21      2631.0000000        2642.9648438       -11.964843750    
 1788-71-39      2631.0000000        2640.4003906       -9.4003906250    
 1788-71-365     2633.0000000        2642.7700195       -9.7700195312    
 1782-42-355     2633.0000000        2638.0527344       -5.0527343750    
 1782-48-348     2631.0000000        2692.4313965       -61.431396484    
 1782-55-348     2635.0000000        2676.2343750       -41.234375000    
 1782-60-364     2631.0000000        2651.3010254       -20.301025391    
 1782-66-28      2628.0000000        2640.8229980       -12.822998047    
 1782-71-39      2628.0000000        2640.5942383       -12.594238281    
 1782-71-365     2631.0000000        2642.9787598       -11.978759766    
 1807-66-28      2633.0000000        2642.5456543       -9.5456542969    
 1807-71-39      2634.0000000        2639.8837891       -5.8837890625    
 1807-71-365     2634.0000000        2642.2141113       -8.2141113281    
 1896-55-348     2594.0000000        2629.1872559       -35.187255859    
 1881-71-39      2601.0000000        2603.6284180       -2.6284179688    
 1881-71-365     2589.0000000        2606.6437988       -17.643798828    
 1841-1-357      2580.0000000        2586.7370605       -6.7370605469    
 1773-34-91      2602.0000000        2599.8276367        2.1723632812    
 1821-48-302     2600.0000000        2656.6684570       -56.668457031    
 1798-16-362     2587.0000000        2610.4250488       -23.425048828    
 1797-48-348     2599.0000000        2663.5966797       -64.596679688    
 1797-55-348     2605.0000000        2654.7502441       -49.750244141    
 1797-60-354     2596.0000000        2635.2021484       -39.202148438    
 1797-66-28      2599.0000000        2623.0732422       -24.073242188    
 1797-71-39      2603.0000000        2621.1633301       -18.163330078    
 1797-71-365     2602.0000000        2622.8386230       -20.838623047    
 1789-42-356     2598.0000000        2619.9960938       -21.996093750    
 1789-55-348     2598.0000000        2654.6606445       -56.660644531    
 1789-60-364     2591.0000000        2635.1291504       -44.129150391    
 1789-66-28      2592.0000000        2623.2429199       -31.242919922    
 1789-71-39      2594.0000000        2621.5078125       -27.507812500    
 1789-71-365     2596.0000000        2623.0473633       -27.047363281    
 1780-66-28      2599.0000000        2623.0732422       -24.073242188    
 1780-71-39      2602.0000000        2621.1633301       -19.163330078    
 1780-71-365     2604.0000000        2622.8386230       -18.838623047    
 1799-42-356     2601.0000000        2606.7189941       -5.7189941406    
 1799-48-335     2589.0000000        2640.9323730       -51.932373047    
 1736-34-152     2616.0000000        2607.9333496        8.0666503906    
 1613-42-355     2568.0000000        2593.4865723       -25.486572266    
 1613-48-348     2573.0000000        2605.4008789       -32.400878906    
 1613-55-348     2537.0000000        2605.2536621       -68.253662109    
 1613-61-41      2504.0000000        2603.7028809       -99.702880859    
 1613-66-12      2480.0000000        2600.7106934       -120.71069336    
 1613-71-22      2473.0000000        2599.7631836       -126.76318359    
 1613-71-365     2471.0000000        2599.3801270       -128.38012695    
 1606-55-348     2541.0000000        2614.6040039       -73.604003906    
 1606-61-41      2508.0000000        2614.1748047       -106.17480469    
 1606-66-12      2483.0000000        2612.0874023       -129.08740234    
 1606-71-22      2477.0000000        2610.7966309       -133.79663086    
 1606-71-365     2475.0000000        2610.4855957       -135.48559570    
 1620-2-90       2690.0000000        2623.2570801        66.742919922    
 1620-12-324     2672.0000000        2623.8444824        48.155517578    
 1620-16-362     2671.0000000        2623.9179688        47.082031250    
 1705-48-335     2651.0000000        2722.9780273       -71.978027344    
 1705-56-16      2668.0000000        2700.9038086       -32.903808594    
 1705-61-60      2643.0000000        2676.8371582       -33.837158203    
 1705-66-25      2663.0000000        2663.2661133      -0.26611328125    
 1530-48-335     2610.0000000        2673.9335938       -63.933593750    
 1530-56-16      2698.0000000        2675.5791016        22.420898438    
 1530-61-60      2732.0000000        2676.0859375        55.914062500    
 1434-37-27      2699.0000000        2654.4121094        44.587890625    
 1434-42-356     2704.0000000        2655.0131836        48.986816406    
 1434-56-17      2711.0000000        2657.2194824        53.780517578    
 1434-60-321     2712.0000000        2658.0573730        53.942626953    
 1434-65-298     2716.0000000        2658.9091797        57.090820312    
 1434-71-365     2715.0000000        2659.8095703        55.190429688    
 1384-48-335     2782.0000000        2770.2326660        11.767333984    
 1344-48-348     2732.0000000        2732.8488770      -0.84887695312    
 1344-55-348     2741.0000000        2733.9909668        7.0090332031    
 1344-61-41      2745.0000000        2736.2480469        8.7519531250    
 1344-66-5       2740.0000000        2738.2646484        1.7353515625    
 1344-71-356     2734.0000000        2739.7175293       -5.7175292969    
 1354-2-93       2721.0000000        2696.0505371        24.949462891    
 1354-7-52       2719.0000000        2696.0065918        22.993408203    
 1354-12-102     2718.0000000        2695.8146973        22.185302734    
 1354-17-71      2715.0000000        2695.5581055        19.441894531    
 1354-22-32      2708.0000000        2695.4201660        12.579833984    
 1354-32-90      2708.0000000        2698.0681152        9.9318847656    
 1354-38-60      2700.0000000        2700.0786133      -7.86132812500E-02
 1358-32-90      2708.0000000        2689.6032715        18.396728516    
 1358-48-336     2704.0000000        2692.6860352        11.313964844    
 846-17-5        2368.0000000        1997.3395996        370.66040039    
 846-22-33       2362.0000000        2001.8581543        360.14184570    
 846-48-348      2367.0000000        2023.1668701        343.83312988    
 846-61-25       2372.0000000        2011.9268799        360.07312012    
 846-65-362      2372.0000000        2009.5980225        362.40197754    
 846-71-365      2376.0000000        2009.2420654        366.75793457    
 829-48-348      2368.0000000        2003.0006104        364.99938965    
 829-55-353      2372.0000000        1997.1416016        374.85839844    
 829-61-35       2375.0000000        1999.8001709        375.19982910    
 829-65-362      2373.0000000        1996.7493896        376.25061035    
 829-71-365      2379.0000000        1996.3513184        382.64868164    
 839-12-121      2371.0000000        1959.0573730        411.94262695    
 839-71-365      2370.0000000        1982.3233643        387.67663574    
 817-1-220       2378.0000000        1958.2309570        419.76904297    
 817-6-331       2379.0000000        1958.5869141        420.41308594    
 817-12-8        2379.0000000        1958.7102051        420.28979492    
 813-32-87       2359.0000000        1976.9467773        382.05322266    
 813-37-33       2360.0000000        1980.5710449        379.42895508    
 813-42-350      2369.0000000        1986.8190918        382.18090820    
 813-48-348      2377.0000000        1989.3114014        387.68859863    
 813-56-17       2381.0000000        1982.5249023        398.47509766    
 813-60-323      2381.0000000        1986.4260254        394.57397461    
 813-65-301      2379.0000000        1983.2568359        395.74316406    
 813-71-365      2386.0000000        1982.6398926        403.36010742    
 818-17-5        2377.0000000        1964.3737793        412.62622070    
 820-1-108       2362.0000000        1956.1199951        405.88000488    
 812-17-5        2369.0000000        1961.5115967        407.48840332    
 812-36-157      2336.0000000        1978.0068359        357.99316406    
 812-56-17       2373.0000000        1980.7153320        392.28466797    
 812-61-61       2364.0000000        1982.8802490        381.11975098    
 812-66-19       2373.0000000        1981.2502441        391.74975586    
 811-56-19       2372.0000000        1983.3183594        388.68164062    
 811-66-20       2372.0000000        1984.1126709        387.88732910    
 796-65-362      2378.0000000        1979.2285156        398.77148438    
 796-71-365      2379.0000000        1978.6428223        400.35717773    
 833-8-18        2360.0000000        1954.1240234        405.87597656    
 822-1-63        2365.0000000        1954.2839355        410.71606445    
 830-1-365       2364.0000000        1953.1246338        410.87536621    
 821-56-17       2359.0000000        1973.8425293        385.15747070    
 821-61-61       2360.0000000        1975.1676025        384.83239746    
 845-1-73        2315.0000000        1941.4881592        373.51184082    
 845-7-2         2316.0000000        1941.5874023        374.41259766    
 845-11-272      2315.0000000        1941.6711426        373.32885742    
 845-16-318      2306.0000000        1941.8741455        364.12585449    
 845-22-33       2308.0000000        1942.5720215        365.42797852    
 845-31-351      2303.0000000        1947.9549561        355.04504395    
 845-36-62       2300.0000000        1949.8969727        350.10302734    
 845-42-350      2299.0000000        1952.1247559        346.87524414    
 845-48-348      2301.0000000        1955.8660889        345.13391113    
 845-56-19       2310.0000000        1957.9676514        352.03234863    
 845-60-323      2310.0000000        1959.2192383        350.78076172    
 845-65-301      2309.0000000        1960.9575195        348.04248047    
 845-71-13       2316.0000000        1961.8679199        354.13208008    
 1183-16-315     2059.0000000        1903.2612305        155.73876953    
 1183-26-354     2042.0000000        1904.5538330        137.44616699    
 1183-31-362     2037.0000000        1906.5821533        130.41784668    
 1183-36-356     2032.0000000        1910.7438965        121.25610352    
 1183-42-350     2023.0000000        1918.0870361        104.91296387    
 1183-48-348     2015.0000000        1923.3415527        91.658447266    
 1183-66-25      1980.0000000        1936.6850586        43.314941406    
 1183-71-365     2002.0000000        1981.6383057        20.361694336    
 1190-56-23      2001.0000000        1927.2161865        73.783813477    
 1190-61-54      1992.0000000        1929.8100586        62.189941406    
 1190-66-25      1979.0000000        1936.3120117        42.687988281    
 1186-3-344      2064.0000000        1902.8784180        161.12158203    
 1186-5-69       2064.0000000        1902.9393311        161.06066895    
 1186-17-6       2057.0000000        1902.7482910        154.25170898    
 1185-10-213     2065.0000000        1902.8146973        162.18530273    
 1178-38-335     2020.0000000        1913.6137695        106.38623047    
 1178-42-349     2004.0000000        1918.9111328        85.088867188    
 1178-48-349     1996.0000000        1922.9715576        73.028442383    
 1178-55-353     1980.0000000        1926.2351074        53.764892578    
 1178-61-21      1956.0000000        1927.7679443        28.232055664    
 1178-66-34      1939.0000000        1934.5444336        4.4555664062    
 1178-71-365     1990.0000000        1985.7707520        4.2292480469    
 1182-66-25      1954.0000000        1933.6497803        20.350219727    
 1132-12-4       2069.0000000        1904.8394775        164.16052246    
 1134-1-73       2069.0000000        1904.6557617        164.34423828    
 1148-17-12      2046.0000000        1904.6663818        141.33361816    
 1148-21-356     2038.0000000        1904.6458740        133.35412598    
 1148-27-27      2033.0000000        1904.9558105        128.04418945    
 1148-31-348     2027.0000000        1910.0991211        116.90087891    
 1148-37-23      2022.0000000        1912.4733887        109.52661133    
 1148-42-349     2011.0000000        1922.3104248        88.689575195    
 1148-48-348     2000.0000000        1924.9753418        75.024658203    
 1148-55-353     1979.0000000        1925.1688232        53.831176758    
 1148-61-34      1951.0000000        1926.3327637        24.667236328    
 1148-66-6       1935.0000000        1931.7517090        3.2482910156    
 1148-71-365     1952.0000000        1955.0605469       -3.0605468750    
 1177-35-321     2025.0000000        1909.5385742        115.46142578    
 1177-42-349     2007.0000000        1918.7517090        88.248291016    
 1177-48-348     1997.0000000        1922.3782959        74.621704102    
 1177-55-353     1979.0000000        1925.4426270        53.557373047    
 1177-61-21      1949.0000000        1926.7679443        22.232055664    
 1177-66-34      1937.0000000        1933.4429932        3.5570068359    
 1177-71-50      1949.0000000        1959.4296875       -10.429687500    
 1105-12-4       2060.0000000        1906.2016602        153.79833984    
 1105-16-333     2053.0000000        1906.1430664        146.85693359    
 1105-21-356     2044.0000000        1906.1181641        137.88183594    
 1106-42-349     2018.0000000        1918.9472656        99.052734375    
 1106-55-353     1984.0000000        1925.1929932        58.807006836    
 1106-61-13      1958.0000000        1926.6520996        31.347900391    
 1106-66-6       1939.0000000        1931.3662109        7.6337890625    
 1106-71-365     1953.0000000        1951.1453857        1.8546142578    
 1102-66-6       1941.0000000        1930.9241943        10.075805664    
 1102-71-365     1950.0000000        1948.6412354        1.3587646484    
 1120-3-152      2054.0000000        1905.8270264        148.17297363    
 1089-42-349     2026.0000000        1919.2652588        106.73474121    
 1089-48-349     2010.0000000        1922.7712402        87.228759766    
 1089-55-353     1994.0000000        1926.1749268        67.825073242    
 1089-61-34      1975.0000000        1927.6252441        47.374755859    
 1089-66-6       1960.0000000        1932.3471680        27.652832031    
 1089-71-365     1971.0000000        1957.0050049        13.994995117    
 1093-66-6       1959.0000000        1932.3625488        26.637451172    
 1093-71-365     1971.0000000        1957.1450195        13.854980469    
 1087-48-349     1998.0000000        1923.3052979        74.694702148    
 1087-61-24      1992.0000000        1928.7158203        63.284179688    
 1087-71-70      1979.0000000        1953.8043213        25.195678711    
 1097-15-1       2056.0000000        1908.6937256        147.30627441    
 996-26-315      2108.0000000        1911.3986816        196.60131836    
 996-48-349      2065.0000000        1924.4135742        140.58642578    
 996-55-353      2055.0000000        1928.5222168        126.47778320    
 996-61-11       2037.0000000        1930.2587891        106.74121094    
 996-66-6        2034.0000000        1933.7517090        100.24829102    
 996-71-365      2036.0000000        1949.8430176        86.156982422    
 995-39-335      2084.0000000        1916.7238770        167.27612305    
 995-42-349      2064.0000000        1919.8339844        144.16601562    
 995-55-353      2044.0000000        1927.2315674        116.76843262    
 995-61-34       2030.0000000        1928.9339600        101.06604004    
 995-66-6        2019.0000000        1932.4068604        86.593139648    
 995-71-365      2033.0000000        1947.1180420        85.881958008    
 1090-12-5       2086.0000000        1907.9707031        178.02929688    
 1090-17-5       2083.0000000        1907.8404541        175.15954590    
 969-56-19       2115.0000000        1939.2041016        175.79589844    
 969-71-365      2107.0000000        1952.2760010        154.72399902    
 983-42-349      2090.0000000        1922.2525635        167.74743652    
 983-55-353      2067.0000000        1930.7401123        136.25988770    
 983-61-34       2057.0000000        1932.7113037        124.28869629    
 983-66-6        2052.0000000        1936.0715332        115.92846680    
 983-71-365      2058.0000000        1951.5104980        106.48950195    
 982-39-238      2104.0000000        1920.0185547        183.98144531    
 921-42-305      2120.0000000        1922.6206055        197.37939453    
 921-48-349      2116.0000000        1926.2969971        189.70300293    
 921-61-34       2099.0000000        1932.3420410        166.65795898    
 921-65-356      2092.0000000        1935.0032959        156.99670410    
 921-71-365      2090.0000000        1943.9323730        146.06762695    
 924-43-60       2107.0000000        1921.4514160        185.54858398    
 924-48-348      2109.0000000        1924.7136230        184.28637695    
 924-55-353      2097.0000000        1928.6373291        168.36267090    
 924-61-34       2089.0000000        1930.6204834        158.37951660    
 924-66-6        2081.0000000        1933.3194580        147.68054199    
 924-71-365      2078.0000000        1941.9097900        136.09020996    
 909-56-16       2118.0000000        1931.7692871        186.23071289    
 911-34-337      2159.0000000        1920.8634033        238.13659668    
 900-56-19       2180.0000000        1941.3618164        238.63818359    
 900-61-61       2192.0000000        1943.4387207        248.56127930    
 848-56-18       2195.0000000        1942.1993408        252.80065918    
 848-66-28       2195.0000000        1946.3870850        248.61291504    
 826-56-19       2208.0000000        1941.8128662        266.18713379    
 800-61-61       2207.0000000        1944.4298096        262.57019043    
 800-66-28       2194.0000000        1946.4830322        247.51696777    
 803-33-59       2215.0000000        1932.5311279        282.46887207    
 852-2-305       2140.0000000        1919.2059326        220.79406738    
 1249-56-27      2347.0000000        2439.0590820       -92.059082031    
 1249-66-13      2266.0000000        2427.8828125       -161.88281250    
 1249-71-365     2273.0000000        2427.7480469       -154.74804688    
 1235-22-32      2376.0000000        2436.8110352       -60.811035156    
 1235-42-362     2298.0000000        2438.0244141       -140.02441406    
 1235-48-357     2338.0000000        2445.6254883       -107.62548828    
 1235-56-32      2326.0000000        2440.8652344       -114.86523438    
 1238-48-320     2316.0000000        2445.7031250       -129.70312500    
 1238-56-10      2288.0000000        2440.8151855       -152.81518555    
 1238-66-10      2251.0000000        2429.6633301       -178.66333008    
 1238-71-41      2262.0000000        2429.2504883       -167.25048828    
 1238-71-365     2267.0000000        2429.5144043       -162.51440430    
 1225-1-365      2430.0000000        2435.1552734       -5.1552734375    
 1200-56-30      2268.0000000        2449.3269043       -181.32690430    
 1200-66-10      2231.0000000        2439.0688477       -208.06884766    
 1200-71-40      2241.0000000        2438.8493652       -197.84936523    
 1198-71-48      2398.0000000        2442.5749512       -44.574951172    
 1262-48-320     2313.0000000        2442.3713379       -129.37133789    
 1262-56-10      2285.0000000        2437.4707031       -152.47070312    
 1262-60-362     2250.0000000        2428.1623535       -178.16235352    
 1262-66-10      2246.0000000        2426.0036621       -180.00366211    
 1262-71-41      2257.0000000        2425.6833496       -168.68334961    
 1263-48-320     2313.0000000        2442.4863281       -129.48632812    
 1263-56-10      2284.0000000        2437.5458984       -153.54589844    
 1263-60-362     2250.0000000        2428.1484375       -178.14843750    
 1263-66-10      2246.0000000        2425.9687500       -179.96875000    
 1263-71-60      2257.0000000        2425.6535645       -168.65356445    
 1263-71-365     2262.0000000        2425.9548340       -163.95483398    
 1239-17-44      2388.0000000        2440.0803223       -52.080322266    
 1239-22-32      2374.0000000        2435.8566895       -61.856689453    
 1239-43-5       2298.0000000        2436.7014160       -138.70141602    
 1239-48-364     2319.0000000        2444.4143066       -125.41430664    
 1239-56-41      2290.0000000        2439.4792480       -149.47924805    
 1239-60-362     2257.0000000        2430.3852539       -173.38525391    
 1239-66-10      2254.0000000        2428.2871094       -174.28710938    
 1239-71-365     2270.0000000        2428.4699707       -158.46997070    
 1232-48-321     2316.0000000        2446.4211426       -130.42114258    
 1232-56-27      2288.0000000        2441.1879883       -153.18798828    
 1232-60-361     2254.0000000        2432.0727539       -178.07275391    
 1232-66-10      2251.0000000        2430.0036621       -179.00366211    
 1232-71-41      2262.0000000        2429.7790527       -167.77905273    
 1241-56-27      2287.0000000        2439.9296875       -152.92968750    
 1241-66-10      2250.0000000        2428.6496582       -178.64965820    
 1241-71-40      2260.0000000        2428.3620605       -168.36206055    
 1270-56-30      2282.0000000        2436.0498047       -154.04980469    
 1270-71-42      2255.0000000        2424.1660156       -169.16601562    
 1273-43-1       2285.0000000        2432.7414551       -147.74145508    
 1273-48-364     2306.0000000        2440.6691895       -134.66918945    
 1273-56-32      2276.0000000        2435.6767578       -159.67675781    
 1273-60-362     2242.0000000        2426.1003418       -184.10034180    
 1273-65-348     2239.0000000        2423.9262695       -184.92626953    
 1273-71-365     2255.0000000        2424.3576660       -169.35766602    
 1256-1-365      2388.0000000        2426.5971680       -38.597167969    
 1234-43-5       2295.0000000        2435.3122559       -140.31225586    
 1234-48-364     2316.0000000        2443.0820312       -127.08203125    
 1234-56-32      2288.0000000        2438.1638184       -150.16381836    
 1234-60-362     2254.0000000        2428.8876953       -174.88769531    
 1233-56-32      2288.0000000        2440.5815430       -152.58154297    
 1233-65-337     2255.0000000        2429.4133301       -174.41333008    
 1233-71-365     2272.0000000        2429.6887207       -157.68872070    
 1227-17-44      2392.0000000        2445.1669922       -53.166992188    
 1227-22-58      2377.0000000        2440.7399902       -63.739990234    
 1227-31-335     2354.0000000        2440.3225098       -86.322509766    
 1227-43-5       2301.0000000        2441.1901855       -140.19018555    
 1227-48-364     2322.0000000        2448.5141602       -126.51416016    
 1227-56-32      2295.0000000        2443.5971680       -148.59716797    
 1227-61-60      2261.0000000        2435.5395508       -174.53955078    
 1227-71-365     2273.0000000        2433.2946777       -160.29467773    
 1208-1-364      2408.0000000        2436.4575195       -28.457519531    
 1208-6-360      2405.0000000        2438.1442871       -33.144287109    
 1208-11-360     2387.0000000        2439.8930664       -52.893066406    
 1208-16-357     2389.0000000        2448.6938477       -59.693847656    
 1208-21-361     2372.0000000        2443.1103516       -71.110351562    
 1208-26-354     2402.0000000        2444.1870117       -42.187011719    
 1208-31-362     2395.0000000        2442.1025391       -47.102539062    
 1219-22-33      2371.0000000        2441.2949219       -70.294921875    
 1219-33-165     2333.0000000        2440.4658203       -107.46582031    
 1219-42-362     2295.0000000        2442.0859375       -147.08593750    
 1219-48-357     2316.0000000        2449.4829102       -133.48291016    
 1219-56-32      2290.0000000        2444.6406250       -154.64062500    
 1219-60-362     2256.0000000        2435.9128418       -179.91284180    
 1219-66-10      2253.0000000        2433.8969727       -180.89697266    
 1219-71-365     2269.0000000        2434.0644531       -165.06445312    
 1217-56-27      2292.0000000        2445.2463379       -153.24633789    
 1217-71-365     2271.0000000        2434.6376953       -163.63769531    
 1205-33-160     2338.0000000        2444.4111328       -106.41113281    
 1205-42-362     2300.0000000        2445.8933105       -145.89331055    
 1205-48-357     2322.0000000        2453.0544434       -131.05444336    
 1205-56-34      2298.0000000        2448.2597656       -150.25976562    
 1205-66-10      2296.0000000        2437.8920898       -141.89208984    
 1231-7-66       2392.0000000        2433.8522949       -41.852294922    
 1231-12-57      2377.0000000        2434.9946289       -57.994628906    
 1231-17-4       2375.0000000        2444.9455566       -69.945556641    
 1231-22-32      2364.0000000        2438.7885742       -74.788574219    
 1231-27-10      2353.0000000        2439.7009277       -86.700927734    
 1231-31-335     2341.0000000        2438.1550293       -97.155029297    
 1231-37-335     2333.0000000        2434.7946777       -101.79467773    
 1179-6-115      2415.0000000        2442.3198242       -27.319824219    
 1168-17-47      2403.0000000        2455.1948242       -52.194824219    
 1168-22-32      2392.0000000        2450.5612793       -58.561279297    
 1168-36-335     2315.0000000        2447.4912109       -132.49121094    
 1114-1-365      2440.0000000        2457.8334961       -17.833496094    
 1122-17-47      2418.0000000        2463.5717773       -45.571777344    
 1122-22-32      2391.0000000        2459.0361328       -68.036132812    
 1122-42-356     2298.0000000        2458.3366699       -160.33666992    
 1122-48-335     2336.0000000        2463.8579102       -127.85791016    
 1140-7-66       2423.0000000        2451.5134277       -28.513427734    
 1140-12-57      2419.0000000        2452.5019531       -33.501953125    
 1140-17-4       2406.0000000        2461.2204590       -55.220458984    
 1140-22-32      2395.0000000        2457.0854492       -62.085449219    
 1140-31-335     2361.0000000        2456.5954590       -95.595458984    
 1140-36-345     2332.0000000        2454.0617676       -122.06176758    
 1193-48-321     2325.0000000        2456.1687012       -131.16870117    
 1193-56-30      2300.0000000        2451.1318359       -151.13183594    
 1176-48-320     2326.0000000        2458.9853516       -132.98535156    
 1176-56-10      2302.0000000        2454.2336426       -152.23364258    
 1176-60-361     2271.0000000        2446.0866699       -175.08666992    
 1176-66-10      2265.0000000        2444.2336426       -179.23364258    
 1176-71-40      2276.0000000        2444.2746582       -168.27465820    
 1176-71-365     2282.0000000        2444.5925293       -162.59252930    
 1159-66-10      2352.0000000        2447.8215332       -95.821533203    
 1159-71-62      2331.0000000        2447.7541504       -116.75415039    
 1159-71-365     2326.0000000        2448.0932617       -122.09326172    
 1160-71-62      2408.0000000        2447.2949219       -39.294921875    
 1160-71-365     2409.0000000        2447.6621094       -38.662109375    
 1147-42-356     2384.0000000        2457.6137695       -73.613769531    
 1147-48-335     2391.0000000        2464.0920410       -73.092041016    
 1147-56-17      2388.0000000        2459.5129395       -71.512939453    
 1141-1-274      2417.0000000        2450.5556641       -33.555664062    
 1141-7-176      2412.0000000        2452.0625000       -40.062500000    
 1141-11-311     2405.0000000        2453.6206055       -48.620605469    
 1141-17-44      2406.0000000        2461.0825195       -55.082519531    
 1141-22-30      2388.0000000        2456.9274902       -68.927490234    
 1141-26-349     2370.0000000        2457.4453125       -87.445312500    
 1141-31-362     2359.0000000        2455.7690430       -96.769042969    
 1141-36-356     2320.0000000        2453.6862793       -133.68627930    
 1141-42-362     2302.0000000        2456.4636230       -154.46362305    
 1141-48-364     2330.0000000        2462.3283691       -132.32836914    
 1141-56-32      2308.0000000        2457.5988770       -149.59887695    
 1141-60-362     2280.0000000        2450.4111328       -170.41113281    
 1141-66-1       2273.0000000        2448.7663574       -175.76635742    
 1141-71-365     2289.0000000        2449.3825684       -160.38256836    
 1121-17-44      2430.0000000        2466.2844238       -36.284423828    
 1121-22-33      2397.0000000        2463.0981445       -66.098144531    
 1121-31-335     2362.0000000        2462.1694336       -100.16943359    
 1121-35-345     2332.0000000        2460.5617676       -128.56176758    
 1121-42-356     2319.0000000        2462.9812012       -143.98120117    
 1121-48-355     2339.0000000        2468.9321289       -129.93212891    
 1121-56-32      2335.0000000        2464.5595703       -129.55957031    
 1121-60-362     2321.0000000        2457.2687988       -136.26879883    
 1121-65-348     2330.0000000        2455.6826172       -125.68261719    
 1121-71-365     2333.0000000        2456.1721191       -123.17211914    
 1192-71-55      2429.0000000        2444.5771484       -15.577148438    
 1157-48-322     2327.0000000        2465.1362305       -138.13623047    
 1157-56-10      2305.0000000        2460.7568359       -155.75683594    
 1157-60-361     2275.0000000        2453.1936035       -178.19360352    
 1157-66-10      2269.0000000        2451.4138184       -182.41381836    
 1157-71-40      2280.0000000        2451.6892090       -171.68920898    
 1180-48-323     2405.0000000        2459.5966797       -54.596679688    
 1167-71-365     2406.0000000        2447.9638672       -41.963867188    
 1170-71-365     2406.0000000        2447.9404297       -41.940429688    
 1172-71-365     2406.0000000        2447.8808594       -41.880859375    
 1163-71-365     2407.0000000        2448.1013184       -41.101318359    
 1155-71-365     2404.0000000        2449.9899902       -45.989990234    
 1144-71-365     2418.0000000        2456.6376953       -38.637695312    
 1080-22-33      2448.0000000        2478.2763672       -30.276367188    
 1080-31-335     2422.0000000        2477.8474121       -55.847412109    
 1080-42-356     2428.0000000        2478.7844238       -50.784423828    
 1080-48-355     2431.0000000        2484.0532227       -53.053222656    
 1085-42-356     2323.0000000        2476.9519043       -153.95190430    
 1085-48-355     2409.0000000        2482.2302246       -73.230224609    
 1091-71-56      2424.0000000        2465.2761230       -41.276123047    
 1048-71-365     2439.0000000        2475.5729980       -36.572998047    
 1012-71-365     2441.0000000        2482.5358887       -41.535888672    
 1039-48-322     2338.0000000        2492.6369629       -154.63696289    
 1039-56-30      2315.0000000        2489.2331543       -174.23315430    
 1039-60-362     2288.0000000        2483.4399414       -195.43994141    
 1039-66-13      2281.0000000        2482.1469727       -201.14697266    
 1039-71-365     2299.0000000        2482.6870117       -183.68701172    
 1040-71-365     2448.0000000        2482.8085938       -34.808593750    
 1075-17-44      2442.0000000        2476.2192383       -34.219238281    
 1075-22-33      2435.0000000        2472.9875488       -37.987548828    
 1075-31-335     2413.0000000        2471.6791992       -58.679199219    
 1053-42-357     2358.0000000        2473.0183105       -115.01831055    
 1056-48-335     2338.0000000        2477.3967285       -139.39672852    
 1056-56-17      2317.0000000        2473.2561035       -156.25610352    
 1016-17-32      2422.0000000        2484.8879395       -62.887939453    
 1016-31-335     2366.0000000        2478.9238281       -112.92382812    
 1016-37-319     2356.0000000        2476.9313965       -120.93139648    
 1011-22-33      2391.0000000        2482.2473145       -91.247314453    
 1015-42-356     2311.0000000        2482.1799316       -171.17993164    
 1015-48-337     2332.0000000        2486.6633301       -154.66333008    
 1015-56-19      2335.0000000        2483.0280762       -148.02807617    
 1015-61-53      2295.0000000        2477.5932617       -182.59326172    
 1015-66-32      2286.0000000        2475.8916016       -189.89160156    
 1094-1-277      2430.0000000        2458.6582031       -28.658203125    
 1094-6-340      2427.0000000        2459.7597656       -32.759765625    
 1094-10-27      2424.0000000        2460.6950684       -36.695068359    
 1077-7-176      2432.0000000        2463.1711426       -31.171142578    
 1063-17-46      2415.0000000        2476.8032227       -61.803222656    
 1063-22-33      2394.0000000        2473.7460938       -79.746093750    
 1034-36-335     2322.0000000        2474.0146484       -152.01464844    
 1034-42-362     2309.0000000        2475.9072266       -166.90722656    
 1034-48-357     2346.0000000        2480.1931152       -134.19311523    
 1034-56-34      2323.0000000        2475.7956543       -152.79565430    
 1034-66-1       2293.0000000        2468.5021973       -175.50219727    
 1034-71-54      2305.0000000        2469.0012207       -164.00122070    
 1034-71-365     2310.0000000        2469.2290039       -159.22900391    
 997-17-46       2437.0000000        2486.0026855       -49.002685547    
 997-22-33       2420.0000000        2484.4138184       -64.413818359    
 1008-1-121      2454.0000000        2474.7934570       -20.793457031    
 1049-17-46      2418.0000000        2477.6037598       -59.603759766    
 1049-31-335     2358.0000000        2472.5354004       -114.53540039    
 1049-36-335     2342.0000000        2470.6123047       -128.61230469    
 1049-42-356     2307.0000000        2472.5480957       -165.54809570    
 1049-48-334     2341.0000000        2477.0207520       -136.02075195    
 1049-56-18      2319.0000000        2472.5971680       -153.59716797    
 1049-61-53      2292.0000000        2466.7634277       -174.76342773    
 1007-11-194     2432.0000000        2477.0725098       -45.072509766    
 1007-17-4       2433.0000000        2485.4899902       -52.489990234    
 1007-22-32      2411.0000000        2481.7604980       -70.760498047    
 1007-27-10      2401.0000000        2480.1545410       -79.154541016    
 1007-31-335     2370.0000000        2479.7407227       -109.74072266    
 1007-37-319     2361.0000000        2476.8825684       -115.88256836    
 1006-1-364      2442.0000000        2475.0925293       -33.092529297    
 1006-7-66       2438.0000000        2476.4228516       -38.422851562    
 1006-11-258     2368.0000000        2477.4411621       -109.44116211    
 1006-17-44      2426.0000000        2485.5615234       -59.561523438    
 1065-42-356     2413.0000000        2473.2800293       -60.280029297    
 1065-48-334     2415.0000000        2478.4753418       -63.475341797    
 1065-56-18      2414.0000000        2473.0371094       -59.037109375    
 1065-66-24      2413.0000000        2465.3564453       -52.356445312    
 991-22-34       2435.0000000        2486.0336914       -51.033691406    
 991-26-279      2422.0000000        2484.3945312       -62.394531250    
 991-31-335      2404.0000000        2484.7109375       -80.710937500    
 991-37-319      2396.0000000        2480.7788086       -84.778808594    
 991-42-356      2390.0000000        2483.5161133       -93.516113281    
 991-48-334      2394.0000000        2488.0385742       -94.038574219    
 991-66-27       2392.0000000        2476.5061035       -84.506103516    
 976-1-365       2456.0000000        2479.4572754       -23.457275391    
 963-1-365       2458.0000000        2481.7661133       -23.766113281    
 964-1-365       2458.0000000        2481.7985840       -23.798583984    
 960-1-365       2471.0000000        2482.4213867       -11.421386719    
 953-1-364       2473.0000000        2485.5344238       -12.534423828    
 950-17-4        2472.0000000        2494.7309570       -22.730957031    
 936-1-365       2461.0000000        2492.1862793       -31.186279297    
 932-1-365       2504.0000000        2494.5249023        9.4750976562    
 944-42-356      2356.0000000        2493.7075195       -137.70751953    
 944-48-341      2376.0000000        2496.8840332       -120.88403320    
 926-1-365       2487.0000000        2495.3676758       -8.3676757812    
 929-1-364       2484.0000000        2495.0031738       -11.003173828    
 929-6-340       2482.0000000        2495.8276367       -13.827636719    
 929-11-333      2478.0000000        2497.1801758       -19.180175781    
 929-16-301      2474.0000000        2501.9890137       -27.989013672    
 974-42-362      2301.0000000        2490.6000977       -189.60009766    
 974-48-336      2335.0000000        2494.7724609       -159.77246094    
 974-56-18       2322.0000000        2491.6071777       -169.60717773    
 957-1-365       2481.0000000        2487.3671875       -6.3671875000    
 942-1-365       2544.0000000        2492.8244629        51.175537109    
 937-1-364       2473.0000000        2493.7583008       -20.758300781    
 943-22-32       2442.0000000        2498.7431641       -56.743164062    
 943-26-279      2421.0000000        2498.8349609       -77.834960938    
 943-31-335      2403.0000000        2496.5935059       -93.593505859    
 943-36-335      2365.0000000        2496.3530273       -131.35302734    
 943-42-351      2351.0000000        2497.8566895       -146.85668945    
 943-48-336      2355.0000000        2500.9521484       -145.95214844    
 862-22-33       2507.0000000        2526.2055664       -19.205566406    
 862-27-59       2490.0000000        2526.8544922       -36.854492188    
 862-31-335      2453.0000000        2525.2875977       -72.287597656    
 862-36-336      2434.0000000        2524.9987793       -90.998779297    
 862-42-351      2426.0000000        2526.3840332       -100.38403320    
 862-48-337      2442.0000000        2528.7478027       -86.747802734    
 901-1-364       2513.0000000        2505.0874023        7.9125976562    
 907-37-342      2408.0000000        2503.7907715       -95.790771484    
 903-1-365       2503.0000000        2503.3906250      -0.39062500000    
 895-42-356      2392.0000000        2507.4047852       -115.40478516    
 895-48-337      2386.0000000        2510.0615234       -124.06152344    
 898-1-32        2492.0000000        2501.6936035       -9.6936035156    
 898-17-4        2491.0000000        2508.1481934       -17.148193359    
 889-22-32       2489.0000000        2508.4077148       -19.407714844    
 889-26-279      2467.0000000        2508.3310547       -41.331054688    
 889-31-335      2455.0000000        2507.2712402       -52.271240234    
 889-36-336      2425.0000000        2507.5305176       -82.530517578    
 889-42-356      2380.0000000        2508.6252441       -128.62524414    
 889-48-337      2404.0000000        2510.6604004       -106.66040039    
 889-61-54       2384.0000000        2504.9916992       -120.99169922    
 883-42-356      2375.0000000        2509.7416992       -134.74169922    
 621-37-343      2434.0000000        2516.1477051       -82.147705078    
 934-33-21       2430.0000000        2502.3359375       -72.335937500    
 863-1-365       2520.0000000        2518.4782715        1.5217285156    
 914-48-336      2386.0000000        2503.9086914       -117.90869141    
 914-61-55       2363.0000000        2497.5729980       -134.57299805    
 902-17-47       2483.0000000        2506.1418457       -23.141845703    
 902-22-32       2476.0000000        2504.0288086       -28.028808594    
 902-26-278      2456.0000000        2503.6667480       -47.666748047    
 902-36-336      2408.0000000        2502.7695312       -94.769531250    
 902-42-356      2375.0000000        2504.0820312       -129.08203125    
 902-48-337      2392.0000000        2506.2397461       -114.23974609    
 902-61-54       2366.0000000        2500.0107422       -134.01074219    
 916-1-365       2494.0000000        2497.0319824       -3.0319824219    
 916-7-298       2486.0000000        2498.0354004       -12.035400391    
 916-11-258      2482.0000000        2498.7360840       -16.736083984    
 916-17-32       2483.0000000        2503.5283203       -20.528320312    
 916-22-34       2477.0000000        2501.6276855       -24.627685547    
 916-26-278      2448.0000000        2500.9052734       -52.905273438    
 916-36-336      2401.0000000        2499.4331055       -98.433105469    
 916-42-362      2381.0000000        2500.8256836       -119.82568359    
 916-48-335      2388.0000000        2503.2082520       -115.20825195    
 916-61-55       2363.0000000        2496.7612305       -133.76123047    
 917-42-362      2386.0000000        2501.2299805       -115.22998047    
 917-48-335      2398.0000000        2503.7902832       -105.79028320    
 905-1-365       2494.0000000        2499.5629883       -5.5629882812    
 910-42-362      2406.0000000        2502.9465332       -96.946533203    
 897-1-365       2511.0000000        2502.4055176        8.5944824219    
 864-1-364       2511.0000000        2514.9721680       -3.9721679688    
 865-42-356      2388.0000000        2518.3051758       -130.30517578    
 865-48-335      2411.0000000        2520.1401367       -109.14013672    
 854-1-365       2516.0000000        2518.9355469       -2.9355468750    
 856-1-365       2515.0000000        2518.8830566       -3.8830566406    
 851-22-34       2501.0000000        2524.7570801       -23.757080078    
 851-26-278      2480.0000000        2524.2731934       -44.273193359    
 851-37-342      2445.0000000        2524.2287598       -79.228759766    
 851-48-337      2426.0000000        2527.7854004       -101.78540039    
 851-61-54       2417.0000000        2522.2543945       -105.25439453    
 843-1-365       2514.0000000        2524.1896973       -10.189697266    
 841-1-365       2523.0000000        2526.9477539       -3.9477539062    
 836-17-4        2508.0000000        2533.3388672       -25.338867188    
 823-1-365       2528.0000000        2536.6232910       -8.6232910156    
 859-48-337      2415.0000000        2519.2912598       -104.29125977    
 842-37-342      2445.0000000        2527.2526855       -82.252685547    
 842-42-356      2428.0000000        2528.3288574       -100.32885742    
 842-48-337      2429.0000000        2529.9641113       -100.96411133    
 842-61-54       2421.0000000        2526.0417480       -105.04174805    
 831-42-351      2438.0000000        2535.3708496       -97.370849609    
 831-48-337      2434.0000000        2536.9550781       -102.95507812    
 828-42-351      2440.0000000        2537.5078125       -97.507812500    
 828-48-337      2437.0000000        2539.0297852       -102.02978516    
 819-1-365       2533.0000000        2538.1076660       -5.1076660156    
 1254-71-42      2339.0000000        2504.6557617       -165.65576172    
 1228-37-95      2395.0000000        2509.8818359       -114.88183594    
 1228-42-356     2381.0000000        2510.0544434       -129.05444336    
 1228-56-20      2381.0000000        2512.3249512       -131.32495117    
 1228-66-25      2353.0000000        2513.5747070       -160.57470703    
 1228-71-40      2348.0000000        2513.5222168       -165.52221680    
 1199-48-344     2388.0000000        2519.2727051       -131.27270508    
 1199-56-20      2389.0000000        2520.7033691       -131.70336914    
 1199-61-60      2375.0000000        2521.5073242       -146.50732422    
 1199-66-25      2369.0000000        2521.9362793       -152.93627930    
 1199-71-40      2361.0000000        2521.9995117       -160.99951172    
 1243-42-362     2314.0000000        2481.6506348       -167.65063477    
 1243-56-18      2313.0000000        2484.2858887       -171.28588867    
 1243-61-60      2294.0000000        2484.6838379       -190.68383789    
 1243-66-27      2283.0000000        2484.3947754       -201.39477539    
 1243-71-56      2280.0000000        2483.8112793       -203.81127930    
 1218-71-365     2422.0000000        2446.6584473       -24.658447266    
 1204-42-356     2298.0000000        2457.7519531       -159.75195312    
 1204-56-17      2295.0000000        2460.0803223       -165.08032227    
 1204-66-26      2264.0000000        2452.9421387       -188.94213867    
 1204-71-365     2283.0000000        2452.4079590       -169.40795898    
 1131-71-365     2433.0000000        2469.0532227       -36.053222656    
 1112-48-320     2331.0000000        2487.7116699       -156.71166992    
 1112-56-25      2321.0000000        2484.2568359       -163.25683594    
 1112-60-362     2302.0000000        2479.1865234       -177.18652344    
 1112-65-348     2295.0000000        2477.5898438       -182.58984375    
 1112-71-60      2306.0000000        2477.4780273       -171.47802734    
 1112-71-365     2310.0000000        2477.5063477       -167.50634766    
 1118-71-365     2460.0000000        2481.3691406       -21.369140625    
 1111-71-362     2461.0000000        2502.4909668       -41.490966797    
 1169-71-362     2447.0000000        2489.5405273       -42.540527344    
 1100-48-348     2500.0000000        2535.3640137       -35.364013672    
 1100-56-25      2499.0000000        2536.6713867       -37.671386719    
 1100-61-56      2487.0000000        2537.3369141       -50.336914062    
 1100-66-42      2474.0000000        2537.7153320       -63.715332031    
 1100-71-365     2471.0000000        2537.9755859       -66.975585938    
 1051-42-355     2511.0000000        2545.5568848       -34.556884766    
 1051-48-365     2505.0000000        2546.2988281       -41.298828125    
 1051-56-25      2501.0000000        2547.4721680       -46.472167969    
 1051-61-42      2495.0000000        2548.0322266       -53.032226562    
 1051-66-53      2487.0000000        2548.3750000       -61.375000000    
 1051-71-365     2480.0000000        2548.7790527       -68.779052734    
 1036-12-95      2539.0000000        2546.4797363       -7.4797363281    
 1036-26-349     2538.0000000        2547.6135254       -9.6135253906    
 1036-48-348     2513.0000000        2549.6884766       -36.688476562    
 1036-56-25      2511.0000000        2550.8908691       -39.890869141    
 1036-61-42      2505.0000000        2551.4902344       -46.490234375    
 1036-66-53      2496.0000000        2551.8422852       -55.842285156    
 1036-71-365     2487.0000000        2552.2646484       -65.264648438    
 1025-56-27      2508.0000000        2545.4855957       -37.485595703    
 1025-66-59      2497.0000000        2546.1247559       -49.124755859    
 1054-66-59      2488.0000000        2533.8000488       -45.800048828    
 1055-65-348     2483.0000000        2529.1203613       -46.120361328    
 1001-56-18      2499.0000000        2538.5363770       -39.536376953    
 1001-65-348     2495.0000000        2538.3542480       -43.354248047    
 1027-56-18      2499.0000000        2538.1501465       -39.150146484    
 1086-71-55      2451.0000000        2503.1000977       -52.100097656    
 1099-26-349     2377.0000000        2479.4304199       -102.43041992    
 1099-43-4       2312.0000000        2479.9501953       -167.95019531    
 1099-48-362     2335.0000000        2484.9987793       -149.99877930    
 1099-56-9       2312.0000000        2481.7082520       -169.70825195    
 1042-48-355     2340.0000000        2497.1403809       -157.14038086    
 1042-56-25      2320.0000000        2494.1867676       -174.18676758    
 1042-60-362     2294.0000000        2489.0151367       -195.01513672    
 1042-65-348     2287.0000000        2487.7607422       -200.76074219    
 1042-71-365     2304.0000000        2488.1906738       -184.19067383    
 952-56-33       2509.0000000        2547.7800293       -38.780029297    
 952-65-348      2501.0000000        2547.5021973       -46.502197266    
 949-56-27       2530.0000000        2569.5795898       -39.579589844    
 993-56-27       2504.0000000        2544.8869629       -40.886962891    
 956-56-29       2515.0000000        2554.7136230       -39.713623047    
 886-71-355      2505.0000000        2599.2075195       -94.207519531    
 886-71-362      2497.0000000        2599.2119141       -102.21191406    
 913-42-355      2532.0000000        2582.1823730       -50.182373047    
 913-48-334      2529.0000000        2582.8989258       -53.898925781    
 913-56-18       2525.0000000        2583.9606934       -58.960693359    
 913-61-53       2521.0000000        2584.5185547       -63.518554688    
 913-66-32       2513.0000000        2584.9055176       -71.905517578    
 874-71-61       2503.0000000        2590.1765137       -87.176513672    
 933-48-338      2507.0000000        2548.8881836       -41.888183594    
 933-56-18       2504.0000000        2549.1494141       -45.149414062    
 933-61-53       2501.0000000        2548.7097168       -47.709716797    
 933-66-32       2498.0000000        2548.4162598       -50.416259766    
 887-26-285      2524.0000000        2555.9013672       -31.901367188    
 887-31-335      2519.0000000        2556.5874023       -37.587402344    
 887-37-1        2505.0000000        2556.4152832       -51.415283203    
 887-42-357      2478.0000000        2557.1933594       -79.193359375    
 877-42-352      2515.0000000        2560.6970215       -45.697021484    
 877-48-338      2518.0000000        2562.1364746       -44.136474609    
 877-61-53       2510.0000000        2561.7365723       -51.736572266    
 877-66-32       2509.0000000        2561.7568359       -52.756835938    
 919-42-357      2478.0000000        2533.4470215       -55.447021484    
 920-42-357      2473.0000000        2529.1809082       -56.180908203    
 888-42-357      2467.0000000        2539.9404297       -72.940429688    
 892-17-48       2512.0000000        2532.2724609       -20.272460938    
 892-22-37       2508.0000000        2532.5307617       -24.530761719    
 892-26-285      2497.0000000        2532.7377930       -35.737792969    
 892-31-335      2484.0000000        2532.8525391       -48.852539062    
 892-36-337      2472.0000000        2532.0646973       -60.064697266    
 878-36-335      2464.0000000        2527.5996094       -63.599609375    
 878-42-359      2467.0000000        2529.1989746       -62.198974609    
 878-71-365      2502.0000000        2528.8488770       -26.848876953    
 853-22-37       2515.0000000        2535.9111328       -20.911132812    
 853-26-336      2491.0000000        2536.3681641       -45.368164062    
 853-48-362      2470.0000000        2538.8007812       -68.800781250    
 853-56-9        2454.0000000        2537.6459961       -83.645996094    
 853-61-47       2458.0000000        2534.4033203       -76.403320312    
 853-65-357      2495.0000000        2534.8159180       -39.815917969    
 853-71-362      2511.0000000        2537.0590820       -26.059082031    
 844-43-4        2467.0000000        2542.5786133       -75.578613281    
 844-48-362      2462.0000000        2544.7822266       -82.782226562    
 844-56-9        2474.0000000        2543.8083496       -69.808349609    
 844-61-47       2465.0000000        2540.8142090       -75.814208984    
 844-65-357      2498.0000000        2541.5429688       -43.542968750    
 844-71-362      2515.0000000        2544.0798340       -29.079833984    
 834-16-364      2533.0000000        2548.1137695       -15.113769531    
 834-26-280      2484.0000000        2546.8725586       -62.872558594    
 834-43-4        2465.0000000        2546.8041992       -81.804199219    
 834-56-20       2471.0000000        2547.9780273       -76.978027344    
 834-60-306      2458.0000000        2545.0634766       -87.063476562    
 834-65-357      2497.0000000        2546.1584473       -49.158447266    
 834-71-362      2514.0000000        2548.9040527       -34.904052734    
 835-65-357      2500.0000000        2545.4384766       -45.438476562    
 835-71-362      2518.0000000        2548.1516113       -30.151611328    
 815-1-365       2541.0000000        2550.9633789       -9.9633789062    
 850-17-80       2544.0000000        2567.7314453       -23.731445312    
 850-22-37       2543.0000000        2568.5383301       -25.538330078    
 850-26-285      2538.0000000        2568.8117676       -30.811767578    
 850-31-335      2532.0000000        2569.5041504       -37.504150391    
 850-38-60       2520.0000000        2569.2934570       -49.293457031    
 850-42-352      2509.0000000        2570.1308594       -61.130859375    
 850-48-338      2512.0000000        2571.5324707       -59.532470703    
 850-60-320      2501.0000000        2571.3161621       -70.316162109    
 850-65-298      2503.0000000        2571.5200195       -68.520019531    
 850-71-365      2504.0000000        2573.9321289       -69.932128906    
 1259-66-59      2533.0000000        2613.9658203       -80.965820312    
 1236-66-59      2562.0000000        2629.9370117       -67.937011719    
 1260-66-59      2532.0000000        2610.4365234       -78.436523438    
 1244-66-59      2536.0000000        2614.5087891       -78.508789062    
 1252-35-23      2516.0000000        2555.2341309       -39.234130859    
 1267-71-365     2476.0000000        2563.3771973       -87.377197266    
 1253-37-90      2465.0000000        2537.8308105       -72.830810547    
 1253-42-355     2463.0000000        2538.1850586       -75.185058594    
 1253-48-349     2460.0000000        2538.9726562       -78.972656250    
 1253-56-11      2455.0000000        2540.3068848       -85.306884766    
 1253-61-56      2448.0000000        2541.3420410       -93.342041016    
 1253-66-59      2441.0000000        2542.1545410       -101.15454102    
 1253-71-365     2429.0000000        2542.8264160       -113.82641602    
 1245-37-90      2438.0000000        2521.1613770       -83.161376953    
 1245-42-355     2425.0000000        2521.3674316       -96.367431641    
 1245-48-349     2420.0000000        2522.2526855       -102.25268555    
 1245-55-357     2417.0000000        2523.6770020       -106.67700195    
 1245-61-12      2408.0000000        2524.6315918       -116.63159180    
 1245-66-49      2401.0000000        2525.2290039       -124.22900391    
 1245-71-365     2392.0000000        2525.5090332       -133.50903320    
 1250-17-86      2461.0000000        2505.0329590       -44.032958984    
 1250-32-69      2422.0000000        2507.3786621       -85.378662109    
 1250-37-95      2405.0000000        2507.8906250       -102.89062500    
 1250-56-19      2380.0000000        2510.6979980       -130.69799805    
 1250-61-60      2364.0000000        2511.5827637       -147.58276367    
 1251-12-296     2472.0000000        2503.7824707       -31.782470703    
 1251-17-86      2459.0000000        2504.0468750       -45.046875000    
 1251-32-69      2418.0000000        2506.3854980       -88.385498047    
 1251-37-95      2401.0000000        2506.8891602       -105.88916016    
 1251-42-356     2381.0000000        2507.0148926       -126.01489258    
 1251-48-334     2380.0000000        2507.9245605       -127.92456055    
 1251-56-19      2376.0000000        2509.4392090       -133.43920898    
 1251-60-321     2362.0000000        2510.2683105       -148.26831055    
 1251-65-298     2356.0000000        2510.6916504       -154.69165039    
 1251-71-365     2351.0000000        2510.6149902       -159.61499023    
 1226-48-344     2395.0000000        2518.5651855       -123.56518555    
 1226-56-19      2392.0000000        2520.0083008       -128.00830078    
 1226-61-60      2374.0000000        2520.8747559       -146.87475586    
 1226-66-25      2371.0000000        2521.3581543       -150.35815430    
 1226-71-42      2363.0000000        2521.4558105       -158.45581055    
 1195-12-297     2515.0000000        2525.6804199       -10.680419922    
 1195-17-60      2511.0000000        2525.8471680       -14.847167969    
 1195-32-69      2493.0000000        2527.6928711       -34.692871094    
 1195-37-95      2484.0000000        2528.3200684       -44.320068359    
 1195-48-344     2469.0000000        2529.9614258       -60.961425781    
 1195-56-19      2423.0000000        2531.3310547       -108.33105469    
 1195-66-25      2438.0000000        2532.8044434       -94.804443359    
 1128-70-357     2457.0000000        2546.4628906       -89.462890625    
 1128-71-365     2458.0000000        2546.5437012       -88.543701172    
 1110-17-78      2537.0000000        2548.7934570       -11.793457031    
 1110-32-70      2525.0000000        2550.0917969       -25.091796875    
 1110-37-1       2507.0000000        2550.6975098       -43.697509766    
 1137-16-357     2534.0000000        2557.5109863       -23.510986328    
 1173-66-5       2554.0000000        2650.9711914       -96.971191406    
 1173-71-365     2541.0000000        2652.8896484       -111.88964844    
 1044-16-362     2571.0000000        2605.1132812       -34.113281250    
 1044-32-69      2561.0000000        2606.0041504       -45.004150391    
 1044-37-95      2559.0000000        2607.1931152       -48.193115234    
 1044-42-356     2552.0000000        2608.3342285       -56.334228516    
 1044-48-344     2546.0000000        2609.1779785       -63.177978516    
 1044-56-20      2550.0000000        2610.1640625       -60.164062500    
 1044-61-60      2536.0000000        2611.1896973       -75.189697266    
 1044-66-25      2521.0000000        2612.4719238       -91.471923828    
 1050-71-40      2513.0000000        2613.5639648       -100.56396484    
 1045-31-349     2555.0000000        2584.9716797       -29.971679688    
 1045-37-26      2550.0000000        2585.7290039       -35.729003906    
 1045-42-354     2545.0000000        2586.5290527       -41.529052734    
 1045-48-344     2543.0000000        2587.2685547       -44.268554688    
 1045-56-17      2550.0000000        2588.3066406       -38.306640625    
 1045-60-320     2531.0000000        2589.0871582       -58.087158203    
 1045-65-298     2514.0000000        2589.9343262       -75.934326172    
 1045-71-365     2501.0000000        2590.9606934       -89.960693359    
 1046-31-349     2549.0000000        2584.9716797       -35.971679688    
 1046-42-354     2535.0000000        2586.5290527       -51.529052734    
 1046-48-344     2536.0000000        2587.2685547       -51.268554688    
 1046-56-17      2529.0000000        2588.3066406       -59.306640625    
 1046-60-320     2529.0000000        2589.0871582       -60.087158203    
 1046-65-298     2512.0000000        2589.9343262       -77.934326172    
 1046-71-365     2500.0000000        2590.9606934       -90.960693359    
 1047-31-349     2492.0000000        2584.9716797       -92.971679688    
 1047-42-354     2469.0000000        2586.5290527       -117.52905273    
 1047-48-344     2465.0000000        2587.2685547       -122.26855469    
 1047-56-17      2456.0000000        2588.3066406       -132.30664062    
 1047-60-320     2443.0000000        2589.0871582       -146.08715820    
 1047-65-298     2463.0000000        2589.9343262       -126.93432617    
 1047-71-365     2462.0000000        2590.9606934       -128.96069336    
 1059-32-70      2541.0000000        2573.6674805       -32.667480469    
 1059-56-19      2525.0000000        2576.8525391       -51.852539062    
 1059-61-54      2518.0000000        2577.6704102       -59.670410156    
 1059-66-32      2504.0000000        2578.4519043       -74.451904297    
 1070-36-283     2528.0000000        2554.3078613       -26.307861328    
 1017-17-78      2551.0000000        2586.7778320       -35.777832031    
 1017-31-349     2541.0000000        2587.6665039       -46.666503906    
 1017-37-26      2537.0000000        2588.2619629       -51.261962891    
 1017-42-355     2531.0000000        2588.9038086       -57.903808594    
 1004-71-365     2502.0000000        2586.0693359       -84.069335938    
 988-2-60        2547.0000000        2575.5541992       -28.554199219    
 979-42-355      2538.0000000        2577.6191406       -39.619140625    
 979-48-334      2535.0000000        2578.2814941       -43.281494141    
 979-56-18       2530.0000000        2579.3537598       -49.353759766    
 979-61-53       2526.0000000        2580.0461426       -54.046142578    
 961-7-85        2553.0000000        2577.3688965       -24.368896484    
 961-12-60       2552.0000000        2577.3762207       -25.376220703    
 961-16-362      2552.0000000        2577.4650879       -25.465087891    
 955-61-53       2538.0000000        2584.7419434       -46.741943359    
 955-66-31       2528.0000000        2585.2856445       -57.285644531    
 925-71-365      2505.0000000        2598.4008789       -93.400878906    
 940-71-365      2503.0000000        2596.8840332       -93.884033203    
 945-71-365      2504.0000000        2597.2724609       -93.272460938    
 959-66-49       2516.0000000        2611.2353516       -95.235351562    
 959-71-365      2504.0000000        2612.3801270       -108.38012695    
 922-61-42       2543.0000000        2612.1923828       -69.192382812    
 922-66-54       2523.0000000        2613.0356445       -90.035644531    
 922-71-365      2511.0000000        2614.1306152       -103.13061523    
 978-66-59       2532.0000000        2631.3586426       -99.358642578    
 978-71-365      2523.0000000        2632.8715820       -109.87158203    
 977-56-17       2602.0000000        2660.2678223       -58.267822266    
 977-61-53       2594.0000000        2662.1872559       -68.187255859    
 977-66-32       2580.0000000        2664.8581543       -84.858154297    
 973-32-70       2598.0000000        2657.7578125       -59.757812500    
 973-38-60       2590.0000000        2660.3376465       -70.337646484    
 973-56-17       2607.0000000        2662.9716797       -55.971679688    
 973-61-53       2599.0000000        2664.9597168       -65.959716797    
 954-42-354      2599.0000000        2660.2324219       -61.232421875    
 954-48-335      2608.0000000        2661.0451660       -53.045166016    
 870-12-60       2625.0000000        2676.3034668       -51.303466797    
 870-17-78       2621.0000000        2676.1081543       -55.108154297    
 870-22-89       2618.0000000        2676.3298340       -58.329833984    
 870-32-70       2613.0000000        2679.8361816       -66.836181641    
 870-37-1        2612.0000000        2680.9260254       -68.926025391    
 870-42-354      2609.0000000        2681.3813477       -72.381347656    
 869-7-171       2627.0000000        2668.6623535       -41.662353516    
 869-42-354      2609.0000000        2672.6474609       -63.647460938    
 869-56-18       2612.0000000        2674.1960449       -62.196044922    
 869-60-320      2607.0000000        2675.1076660       -68.107666016    
 869-65-299      2594.0000000        2676.7253418       -82.725341797    
 869-71-365      2580.0000000        2678.6010742       -98.601074219    
 915-66-53       2565.0000000        2648.1169434       -83.116943359    
 915-71-365      2556.0000000        2649.6813965       -93.681396484    
 912-66-41       2539.0000000        2634.2463379       -95.246337891    
 912-71-365      2518.0000000        2635.6127930       -117.61279297    
 875-2-86        2589.0000000        2629.9064941       -40.906494141    
 879-61-53       2579.0000000        2636.4521484       -57.452148438    
 879-66-46       2541.0000000        2637.4433594       -96.443359375    
 879-71-365      2540.0000000        2638.7358398       -98.735839844    
 881-2-87        2569.0000000        2618.8383789       -49.838378906    
 891-48-334      2541.0000000        2603.7197266       -62.719726562    
 891-56-18       2538.0000000        2604.7221680       -66.722167969    
 891-61-62       2530.0000000        2605.4018555       -75.401855469    
 891-66-32       2519.0000000        2606.0180664       -87.018066406    
 891-71-64       2506.0000000        2606.8559570       -100.85595703    
 876-42-355      2552.0000000        2610.5710449       -58.571044922    
 876-48-334      2539.0000000        2611.2929688       -72.292968750    
 876-56-19       2544.0000000        2612.2795410       -68.279541016    
 876-61-62       2538.0000000        2612.9794922       -74.979492188    
 876-66-32       2526.0000000        2613.6477051       -87.647705078    
 866-66-32       2529.0000000        2614.7033691       -85.703369141    
 866-71-64       2515.0000000        2615.5966797       -100.59667969    
 873-33-328      2565.0000000        2610.0808105       -45.080810547    
 918-42-355      2544.0000000        2598.5183105       -54.518310547    
 906-37-28       2539.0000000        2599.6838379       -60.683837891    
 923-42-355      2541.0000000        2591.7512207       -50.751220703    
 923-48-334      2538.0000000        2592.4455566       -54.445556641    
 923-56-18       2533.0000000        2593.4775391       -60.477539062    
 849-42-356      2552.0000000        2604.6752930       -52.675292969    
 849-56-18       2543.0000000        2606.4245605       -63.424560547    
 3417-32-69      2618.0000000        2678.5229492       -60.522949219    
 3417-35-23      2607.0000000        2679.2648926       -72.264892578    
 3417-42-354     2615.0000000        2680.0388184       -65.038818359    
 3417-48-335     2618.0000000        2680.7170410       -62.717041016    
 3417-56-17      2606.0000000        2681.6843262       -75.684326172    
 3417-61-53      2601.0000000        2682.7697754       -81.769775391    
 1921-16-362     2735.0000000        2768.1140137       -33.114013672    
 1229-36-319     2700.0000000        2745.3190918       -45.319091797    
 1202-42-362     2739.0000000        2786.3535156       -47.353515625    
 1202-48-336     2748.0000000        2788.5170898       -40.517089844    
 1164-2-93       2771.0000000        2800.2487793       -29.248779297    
 1164-16-300     2748.0000000        2798.9638672       -50.963867188    
 1164-27-12      2758.0000000        2821.4489746       -63.448974609    
 1164-48-336     2788.0000000        2821.1115723       -33.111572266    
 1164-56-17      2792.0000000        2859.0173340       -67.017333984    
 1164-61-60      2780.0000000        2855.2263184       -75.226318359    
 1125-71-356     2768.0000000        2862.8164062       -94.816406250    
 1123-71-53      2768.0000000        2859.9785156       -91.978515625    
 1543-2-90       2922.0000000        2835.0737305        86.926269531    
 1543-56-19      2860.0000000        2904.0607910       -44.060791016    
 1543-66-26      2873.0000000        2885.4863281       -12.486328125    
 1084-48-338     2852.0000000        2858.4230957       -6.4230957031    
 1067-71-63      2781.0000000        2862.6813965       -81.681396484    
 1066-71-63      2777.0000000        2863.7006836       -86.700683594    
 1544-2-88       2878.0000000        2825.2446289        52.755371094    
 1544-12-324     2840.0000000        2823.0541992        16.945800781    
 1593-61-60      2797.0000000        2859.5126953       -62.512695312    
 1593-66-26      2774.0000000        2847.1735840       -73.173583984    
 1069-71-365     2691.0000000        2800.0144043       -109.01440430    
 1052-56-17      2728.0000000        2809.4155273       -81.415527344    
 1052-66-26      2705.0000000        2815.7556152       -110.75561523    
 989-66-20       2704.0000000        2796.7731934       -92.773193359    
 966-22-60       2729.0000000        2745.7167969       -16.716796875    
 987-12-324      2803.0000000        2825.2753906       -22.275390625    
 987-22-33       2814.0000000        2830.0627441       -16.062744141    
 987-27-12       2810.0000000        2835.8557129       -25.855712891    
 987-66-20       2825.0000000        2872.9733887       -47.973388672    
 858-71-63       2702.0000000        2811.8479004       -109.84790039    
 890-42-362      2717.0000000        2789.1040039       -72.104003906    
 890-48-338      2730.0000000        2791.0344238       -61.034423828    
 890-56-19       2730.0000000        2793.5024414       -63.502441406    
 890-61-60       2726.0000000        2799.1137695       -73.113769531    
 890-66-20       2715.0000000        2798.4519043       -83.451904297    
 908-71-365      2689.0000000        2783.8591309       -94.859130859    
 667-17-5        2504.0000000        1975.1646729        528.83532715    
 667-22-1        2502.0000000        1972.5750732        529.42492676    
 667-27-14       2494.0000000        1972.5200195        521.47998047    
 667-31-350      2499.0000000        1982.1193848        516.88061523    
 667-37-340      2494.0000000        1981.7741699        512.22583008    
 667-42-351      2499.0000000        1985.1887207        513.81127930    
 667-48-348      2498.0000000        1985.9853516        512.01464844    
 652-27-14       2504.0000000        1971.1643066        532.83569336    
 652-56-17       2507.0000000        1982.1429443        524.85705566    
 652-66-20       2507.0000000        1984.8598633        522.14013672    
 614-27-14       2526.0000000        1972.4627686        553.53723145    
 613-56-17       2525.0000000        1984.5169678        540.48303223    
 641-1-260       2528.0000000        1968.5649414        559.43505859    
 641-26-1        2539.0000000        1974.2656250        564.73437500    
 641-56-18       2538.0000000        1984.5112305        553.48876953    
 641-66-31       2538.0000000        1988.2056885        549.79431152    
 793-6-289       2382.0000000        1957.2011719        424.79882812    
 793-48-348      2377.0000000        1981.6790771        395.32092285    
 793-61-25       2381.0000000        1980.1538086        400.84619141    
 793-65-357      2380.0000000        1979.1497803        400.85021973    
 793-71-365      2382.0000000        1978.6313477        403.36865234    
 762-56-18       2383.0000000        1975.9219971        407.07800293    
 762-61-61       2384.0000000        1977.5943604        406.40563965    
 762-66-34       2383.0000000        1977.4117432        405.58825684    
 758-48-348      2397.0000000        1980.9361572        416.06384277    
 758-55-353      2400.0000000        1978.4510498        421.54895020    
 758-61-25       2401.0000000        1981.4733887        419.52661133    
 758-65-362      2400.0000000        1980.1726074        419.82739258    
 758-71-365      2401.0000000        1979.8360596        421.16394043    
 766-10-104      2408.0000000        1965.3739014        442.62609863    
 773-36-156      2387.0000000        1976.9727783        410.02722168    
 722-8-276       2447.0000000        1964.2409668        482.75903320    
 722-12-360      2448.0000000        1964.7821045        483.21789551    
 722-22-3        2447.0000000        1967.5172119        479.48278809    
 741-65-362      2421.0000000        1981.5570068        439.44299316    
 741-71-365      2422.0000000        1982.9693604        439.03063965    
 738-65-362      2422.0000000        1981.8095703        440.19042969    
 738-71-365      2422.0000000        1983.6611328        438.33886719    
 743-65-362      2421.0000000        1981.3527832        439.64721680    
 743-71-365      2421.0000000        1982.1884766        438.81152344    
 740-65-362      2421.0000000        1981.4368896        439.56311035    
 740-71-365      2421.0000000        1982.4844971        438.51550293    
 737-22-3        2416.0000000        1966.6458740        449.35412598    
 737-48-348      2416.0000000        1981.0194092        434.98059082    
 737-61-25       2418.0000000        1983.4514160        434.54858398    
 737-65-362      2418.0000000        1981.1397705        436.86022949    
 737-71-365      2418.0000000        1981.3717041        436.62829590    
 723-12-180      2416.0000000        1957.1751709        458.82482910    
 723-17-9        2414.0000000        1957.8723145        456.12768555    
 723-22-1        2414.0000000        1958.6885986        455.31140137    
 723-32-85       2411.0000000        1964.2740479        446.72595215    
 748-61-61       2238.0000000        1952.6528320        285.34716797    
 748-66-33       2227.0000000        1954.3929443        272.60705566    
 714-56-19       2237.0000000        1956.8199463        280.18005371    
 714-61-61       2235.0000000        1958.4404297        276.55957031    
 715-56-17       2450.0000000        1988.4040527        461.59594727    
 715-61-62       2457.0000000        1992.6088867        464.39111328    
 715-66-35       2456.0000000        1990.8870850        465.11291504    
 713-56-17       2455.0000000        1982.0998535        472.90014648    
 713-66-35       2454.0000000        1984.6596680        469.34033203    
 702-65-362      2463.0000000        1983.0484619        479.95153809    
 702-71-365      2463.0000000        1983.2043457        479.79565430    
 700-36-164      2460.0000000        1974.4034424        485.59655762    
 700-55-353      2466.0000000        1980.5997314        485.40026855    
 700-61-25       2467.0000000        1991.9908447        475.00915527    
 700-65-362      2466.0000000        1983.2030029        482.79699707    
 700-71-365      2467.0000000        1987.9636230        479.03637695    
 671-27-14       2489.0000000        1972.8508301        516.14916992    
 671-55-353      2494.0000000        1987.6519775        506.34802246    
 671-61-25       2495.0000000        1993.0909424        501.90905762    
 656-12-178      2494.0000000        1969.7991943        524.20080566    
 656-56-17       2499.0000000        2007.5434570        491.45654297    
 656-66-20       2499.0000000        1988.1019287        510.89807129    
 656-71-365      2499.0000000        1992.2053223        506.79467773    
 655-26-362      2408.0000000        1959.9320068        448.06799316    
 655-32-85       2406.0000000        1961.0736084        444.92639160    
 655-35-53       2401.0000000        1961.8684082        439.13159180    
 655-56-18       2407.0000000        1968.7979736        438.20202637    
 689-66-33       2257.0000000        1966.8948975        290.10510254    
 688-71-365      2245.0000000        1969.0444336        275.95556641    
 682-56-18       2351.0000000        1966.4458008        384.55419922    
 636-56-18       2491.0000000        1978.6606445        512.33935547    
 636-61-62       2491.0000000        1980.6525879        510.34741211    
 636-66-20       2492.0000000        1981.3803711        510.61962891    
 648-71-365      2482.0000000        1981.6986084        500.30139160    
 601-48-348      2513.0000000        1976.3269043        536.67309570    
 601-55-353      2504.0000000        1978.5544434        525.44555664    
 601-61-34       2505.0000000        1980.4331055        524.56689453    
 601-65-362      2505.0000000        1981.4658203        523.53417969    
 601-71-365      2505.0000000        1981.4923096        523.50769043    
 632-56-17       2501.0000000        1983.4060059        517.59399414    
 632-66-20       2500.0000000        1985.4952393        514.50476074    
 602-22-1        2498.0000000        1968.0605469        529.93945312    
 579-56-18       2514.0000000        1980.8859863        533.11401367    
 598-42-351      2491.0000000        1968.7801514        522.21984863    
 598-48-348      2490.0000000        1971.1230469        518.87695312    
 598-56-18       2494.0000000        1973.9337158        520.06628418    
 598-60-323      2494.0000000        1975.3194580        518.68054199    
 598-65-300      2493.0000000        1976.8739014        516.12609863    
 598-71-365      2495.0000000        1977.7459717        517.25402832    
 739-37-15       2205.0000000        1938.0598145        266.94018555    
 739-48-341      2200.0000000        1941.4116211        258.58837891    
 739-55-353      2197.0000000        1944.3092041        252.69079590    
 739-61-34       2193.0000000        1946.3819580        246.61804199    
 739-65-362      2190.0000000        1948.3132324        241.68676758    
 739-71-365      2186.0000000        1950.8569336        235.14306641    
 720-12-152      2215.0000000        1939.4973145        275.50268555    
 720-17-9        2226.0000000        1939.6053467        286.39465332    
 720-21-364      2222.0000000        1939.7791748        282.22082520    
 720-66-34       2202.0000000        1950.9073486        251.09265137    
 747-48-341      2159.0000000        1938.4996338        220.50036621    
 747-55-346      2172.0000000        1941.3602295        230.63977051    
 747-61-34       2161.0000000        1943.5570068        217.44299316    
 747-65-362      2158.0000000        1945.5621338        212.43786621    
 747-71-365      2157.0000000        1948.2637939        208.73620605    
 717-27-13       2532.0000000        2589.7763672       -57.776367188    
 644-42-343      2450.0000000        2639.1252441       -189.12524414    
 625-42-343      2439.0000000        2648.4416504       -209.44165039    
 620-42-343      2444.0000000        2655.7043457       -211.70434570    
 634-35-29       2574.0000000        2709.9145508       -135.91455078    
 634-42-322      2559.0000000        2710.2829590       -151.28295898    
 554-42-350      2595.0000000        2723.1672363       -128.16723633    
 561-42-349      2661.0000000        2741.2905273       -80.290527344    
 535-42-350      2638.0000000        2731.2805176       -93.280517578    
 577-22-34       2586.0000000        2653.7133789       -67.713378906    
 577-27-59       2549.0000000        2657.1254883       -108.12548828    
 577-31-339      2500.0000000        2664.3574219       -164.35742188    
 577-37-1        2481.0000000        2672.2373047       -191.23730469    
 577-42-343      2452.0000000        2676.4194336       -224.41943359    
 577-48-343      2460.0000000        2677.5388184       -217.53881836    
 577-56-16       2425.0000000        2673.7028809       -248.70288086    
 577-60-322      2411.0000000        2670.6633301       -259.66333008    
 577-65-302      2452.0000000        2673.5341797       -221.53417969    
 577-71-365      2473.0000000        2682.9123535       -209.91235352    
 581-1-365       2613.0000000        2647.7409668       -34.740966797    
 582-42-343      2423.0000000        2658.4460449       -235.44604492    
 582-56-16       2421.0000000        2661.2507324       -240.25073242    
 586-27-56       2560.0000000        2654.7578125       -94.757812500    
 586-37-316      2455.0000000        2659.9895020       -204.98950195    
 586-42-343      2436.0000000        2663.0981445       -227.09814453    
 586-56-16       2414.0000000        2664.2443848       -250.24438477    
 586-61-55       2392.0000000        2661.4177246       -269.41772461    
 586-66-46       2450.0000000        2671.4414062       -221.44140625    
 553-22-39       2593.0000000        2660.7451172       -67.745117188    
 553-26-299      2554.0000000        2663.1328125       -109.13281250    
 553-31-348      2505.0000000        2663.2490234       -158.24902344    
 553-36-21       2455.0000000        2663.1213379       -208.12133789    
 584-22-44       2584.0000000        2651.2878418       -67.287841797    
 584-27-56       2547.0000000        2654.3286133       -107.32861328    
 584-31-339      2495.0000000        2654.5649414       -159.56494141    
 584-37-1        2474.0000000        2655.4868164       -181.48681641    
 584-42-343      2433.0000000        2659.0937500       -226.09375000    
 584-56-16       2410.0000000        2661.6201172       -251.62011719    
 584-61-55       2391.0000000        2659.3833008       -268.38330078    
 584-66-46       2446.0000000        2671.6660156       -225.66601562    
 585-22-44       2583.0000000        2651.9257812       -68.925781250    
 585-27-56       2547.0000000        2655.2148438       -108.21484375    
 585-31-339      2498.0000000        2660.9821777       -162.98217773    
 585-37-1        2467.0000000        2667.2766113       -200.27661133    
 585-42-343      2437.0000000        2671.3256836       -234.32568359    
 585-56-16       2417.0000000        2669.0397949       -252.03979492    
 585-61-55       2400.0000000        2665.8867188       -265.88671875    
 585-66-46       2434.0000000        2671.5134277       -237.51342773    
 557-38-1        2450.0000000        2666.9477539       -216.94775391    
 557-42-343      2435.0000000        2670.4904785       -235.49047852    
 557-66-46       2446.0000000        2679.0893555       -233.08935547    
 548-1-365       2625.0000000        2658.8867188       -33.886718750    
 575-17-55       2606.0000000        2652.2485352       -46.248535156    
 575-22-44       2585.0000000        2650.9448242       -65.944824219    
 575-26-299      2563.0000000        2653.7770996       -90.777099609    
 563-17-55       2608.0000000        2658.1918945       -50.191894531    
 563-22-44       2582.0000000        2657.0405273       -75.040527344    
 563-66-46       2450.0000000        2677.5983887       -227.59838867    
 556-26-299      2555.0000000        2660.8706055       -105.87060547    
 556-31-335      2494.0000000        2659.6257324       -165.62573242    
 556-36-317      2441.0000000        2658.5532227       -217.55322266    
 556-56-10       2417.0000000        2666.7109375       -249.71093750    
 556-61-56       2388.0000000        2664.6123047       -276.61230469    
 556-66-34       2437.0000000        2677.9030762       -240.90307617    
 558-26-299      2562.0000000        2660.5214844       -98.521484375    
 558-31-317      2494.0000000        2658.9506836       -164.95068359    
 558-38-319      2491.0000000        2661.8889160       -170.88891602    
 572-1-365       2603.0000000        2650.6362305       -47.636230469    
 543-1-365       2605.0000000        2660.2624512       -55.262451172    
 529-48-336      2480.0000000        2680.4497070       -200.44970703    
 529-56-10       2437.0000000        2679.0024414       -242.00244141    
 529-61-56       2410.0000000        2675.3876953       -265.38769531    
 529-66-34       2445.0000000        2686.0615234       -241.06152344    
 798-1-365       2539.0000000        2551.7924805       -12.792480469    
 794-1-77        2534.0000000        2548.9880371       -14.988037109    
 772-3-59        2562.0000000        2561.8725586       0.12744140625    
 792-1-365       2540.0000000        2547.9455566       -7.9455566406    
 790-1-274       2535.0000000        2543.3520508       -8.3520507812    
 790-6-286       2531.0000000        2543.5532227       -12.553222656    
 790-11-258      2529.0000000        2544.6120605       -15.612060547    
 790-17-4        2524.0000000        2547.2287598       -23.228759766    
 790-22-34       2517.0000000        2545.8093262       -28.809326172    
 790-27-53       2506.0000000        2545.5505371       -39.550537109    
 790-31-335      2490.0000000        2544.8823242       -54.882324219    
 790-37-32       2471.0000000        2545.1313477       -74.131347656    
 790-42-351      2453.0000000        2546.5959473       -93.595947266    
 790-48-337      2445.0000000        2548.0603027       -103.06030273    
 790-61-54       2443.0000000        2544.3232422       -101.32324219    
 783-1-274       2535.0000000        2552.2673340       -17.267333984    
 783-6-288       2532.0000000        2552.3974609       -20.397460938    
 783-11-258      2528.0000000        2553.3068848       -25.306884766    
 783-17-4        2528.0000000        2555.5573730       -27.557373047    
 783-17-47       2528.0000000        2555.4934082       -27.493408203    
 783-22-34       2521.0000000        2554.1489258       -33.148925781    
 783-26-280      2507.0000000        2554.4050293       -47.405029297    
 783-31-335      2498.0000000        2553.8911133       -55.891113281    
 783-42-351      2458.0000000        2555.9807129       -97.980712891    
 783-61-54       2445.0000000        2553.6062012       -108.60620117    
 799-1-365       2542.0000000        2544.6403809       -2.6403808594    
 774-65-357      2494.0000000        2576.0937500       -82.093750000    
 774-71-362      2519.0000000        2580.6398926       -61.639892578    
 751-1-365       2570.0000000        2578.2241211       -8.2241210938    
 746-22-38       2536.0000000        2578.8376465       -42.837646484    
 746-26-280      2500.0000000        2579.2995605       -79.299560547    
 746-32-41       2498.0000000        2578.6066895       -80.606689453    
 746-48-362      2477.0000000        2581.7153320       -104.71533203    
 746-56-9        2486.0000000        2581.0195312       -95.019531250    
 746-61-47       2486.0000000        2578.8400879       -92.840087891    
 746-65-357      2520.0000000        2583.3247070       -63.324707031    
 746-71-362      2538.0000000        2588.0366211       -50.036621094    
 745-1-55        2556.0000000        2579.4104004       -23.410400391    
 754-48-342      2454.0000000        2578.5993652       -124.59936523    
 754-56-18       2468.0000000        2577.7924805       -109.79248047    
 754-61-53       2463.0000000        2575.7321777       -112.73217773    
 754-66-32       2491.0000000        2579.8139648       -88.813964844    
 721-12-313      2560.0000000        2593.9582520       -33.958251953    
 721-17-52       2559.0000000        2597.0405273       -38.040527344    
 721-22-38       2545.0000000        2595.2143555       -50.214355469    
 721-26-287      2529.0000000        2595.9453125       -66.945312500    
 721-31-335      2519.0000000        2595.2543945       -76.254394531    
 721-36-318      2501.0000000        2594.7238770       -93.723876953    
 721-42-350      2487.0000000        2596.2687988       -109.26879883    
 721-48-343      2496.0000000        2598.5363770       -102.53637695    
 721-56-19       2501.0000000        2597.6772461       -96.677246094    
 721-61-55       2517.0000000        2596.4650879       -79.465087891    
 721-66-46       2551.0000000        2604.4248047       -53.424804688    
 729-43-4        2481.0000000        2595.4919434       -114.49194336    
 729-48-362      2483.0000000        2597.8874512       -114.88745117    
 729-56-9        2494.0000000        2597.1628418       -103.16284180    
 729-66-1        2530.0000000        2603.1337891       -73.133789062    
 729-71-362      2550.0000000        2608.9396973       -58.939697266    
 706-17-52       2567.0000000        2610.4870605       -43.487060547    
 706-22-37       2551.0000000        2608.9914551       -57.991455078    
 706-27-62       2534.0000000        2610.1308594       -76.130859375    
 706-31-335      2512.0000000        2609.4487305       -97.448730469    
 706-43-4        2494.0000000        2610.3591309       -116.35913086    
 706-48-362      2496.0000000        2613.4360352       -117.43603516    
 706-56-9        2500.0000000        2612.6667480       -112.66674805    
 706-61-47       2502.0000000        2611.6484375       -109.64843750    
 706-65-357      2537.0000000        2622.9616699       -85.961669922    
 706-71-362      2557.0000000        2630.1687012       -73.168701172    
 694-17-52       2576.0000000        2618.9101562       -42.910156250    
 694-22-38       2562.0000000        2618.3918457       -56.391845703    
 694-26-285      2534.0000000        2619.5266113       -85.526611328    
 694-31-344      2513.0000000        2619.4338379       -106.43383789    
 694-36-354      2476.0000000        2618.2292480       -142.22924805    
 694-43-4        2493.0000000        2620.1799316       -127.17993164    
 694-48-362      2498.0000000        2623.6779785       -125.67797852    
 694-56-9        2505.0000000        2622.9528809       -117.95288086    
 694-61-47       2504.0000000        2621.5224609       -117.52246094    
 694-65-357      2533.0000000        2632.2753906       -99.275390625    
 694-71-362      2554.0000000        2640.3205566       -86.320556641    
 716-1-365       2575.0000000        2598.1035156       -23.103515625    
 719-12-121      2562.0000000        2595.4091797       -33.409179688    
 708-8-302       2566.0000000        2602.8791504       -36.879150391    
 708-12-64       2563.0000000        2604.3618164       -41.361816406    
 708-17-3        2561.0000000        2607.2744141       -46.274414062    
 708-22-38       2547.0000000        2605.0004883       -58.000488281    
 708-26-287      2532.0000000        2606.0510254       -74.051025391    
 708-31-335      2523.0000000        2605.1027832       -82.102783203    
 708-42-350      2497.0000000        2606.1945801       -109.19458008    
 708-48-343      2502.0000000        2608.8747559       -106.87475586    
 685-1-365       2591.0000000        2615.9477539       -24.947753906    
 674-22-38       2556.0000000        2624.5168457       -68.516845703    
 674-31-344      2533.0000000        2625.1523438       -92.152343750    
 674-42-350      2506.0000000        2626.1699219       -120.16992188    
 674-48-343      2513.0000000        2630.0563965       -117.05639648    
 674-56-19       2518.0000000        2628.9641113       -110.96411133    
 674-61-60       2556.0000000        2631.5644531       -75.564453125    
 674-66-48       2580.0000000        2651.1091309       -71.109130859    
 676-27-10       2543.0000000        2626.9523926       -83.952392578    
 687-17-3        2567.0000000        2617.3579102       -50.357910156    
 687-22-38       2551.0000000        2614.6738281       -63.673828125    
 687-27-11       2542.0000000        2616.6472168       -74.647216797    
 687-42-350      2486.0000000        2616.2724609       -130.27246094    
 687-48-343      2502.0000000        2619.3474121       -117.34741211    
 687-56-19       2504.0000000        2618.2707520       -114.27075195    
 687-61-55       2542.0000000        2619.6752930       -77.675292969    
 687-66-46       2569.0000000        2635.6042480       -66.604248047    
 686-56-19       2495.0000000        2618.2939453       -123.29394531    
 686-66-46       2558.0000000        2633.0695801       -75.069580078    
 677-17-53       2576.0000000        2621.4108887       -45.410888672    
 677-22-38       2559.0000000        2619.2880859       -60.288085938    
 677-26-299      2550.0000000        2621.5852051       -71.585205078    
 677-31-337      2534.0000000        2619.6921387       -85.692138672    
 677-37-336      2522.0000000        2619.8579102       -97.857910156    
 677-42-350      2496.0000000        2621.1242676       -125.12426758    
 677-48-343      2506.0000000        2624.3784180       -118.37841797    
 677-56-19       2507.0000000        2623.1687012       -116.16870117    
 677-61-55       2540.0000000        2625.6433105       -85.643310547    
 677-66-46       2576.0000000        2643.7558594       -67.755859375    
 675-5-102       2577.0000000        2619.2041016       -42.204101562    
 675-11-305      2574.0000000        2623.2634277       -49.263427734    
 675-27-11       2549.0000000        2625.2885742       -76.288574219    
 665-17-53       2574.0000000        2629.4790039       -55.479003906    
 665-22-38       2554.0000000        2627.1296387       -73.129638672    
 665-27-11       2551.0000000        2629.7343750       -78.734375000    
 665-36-357      2509.0000000        2626.6286621       -117.62866211    
 665-42-350      2499.0000000        2628.8054199       -129.80541992    
 665-56-19       2510.0000000        2631.5002441       -121.50024414    
 665-61-55       2552.0000000        2638.0888672       -86.088867188    
 665-66-46       2586.0000000        2663.6306152       -77.630615234    
 657-48-343      2507.0000000        2635.6044922       -128.60449219    
 649-3-294       2582.0000000        2628.1462402       -46.146240234    
 649-6-290       2584.0000000        2629.0869141       -45.086914062    
 649-11-307      2579.0000000        2633.4926758       -54.492675781    
 649-17-3        2574.0000000        2635.4619141       -61.461914062    
 649-22-38       2549.0000000        2632.7517090       -83.751708984    
 649-26-287      2552.0000000        2635.4475098       -83.447509766    
 649-31-335      2532.0000000        2633.4008789       -101.40087891    
 649-38-60       2521.0000000        2633.8681641       -112.86816406    
 649-42-350      2502.0000000        2634.4638672       -132.46386719    
 649-48-343      2512.0000000        2638.8110352       -126.81103516    
 649-56-19       2516.0000000        2637.5090332       -121.50903320    
 649-61-55       2570.0000000        2644.5834961       -74.583496094    
 651-3-294       2582.0000000        2628.9086914       -46.908691406    
 651-6-290       2584.0000000        2629.7912598       -45.791259766    
 651-11-307      2579.0000000        2634.0270996       -55.027099609    
 651-17-52       2575.0000000        2635.7136230       -60.713623047    
 651-27-11       2555.0000000        2636.3081055       -81.308105469    
 651-42-350      2502.0000000        2635.2075195       -133.20751953    
 651-48-343      2513.0000000        2639.7246094       -126.72460938    
 651-56-19       2517.0000000        2638.4995117       -121.49951172    
 651-61-60       2571.0000000        2643.7038574       -72.703857422    
 651-66-46       2592.0000000        2667.9863281       -75.986328125    
 679-17-52       2569.0000000        2625.7839355       -56.783935547    
 679-22-37       2550.0000000        2624.6892090       -74.689208984    
 679-26-336      2534.0000000        2626.4528809       -92.452880859    
 679-48-362      2499.0000000        2630.3745117       -131.37451172    
 679-56-9        2503.0000000        2629.5541992       -126.55419922    
 679-61-47       2506.0000000        2629.0195312       -123.01953125    
 679-65-357      2539.0000000        2643.2084961       -104.20849609    
 679-71-362      2559.0000000        2651.6093750       -92.609375000    
 680-17-52       2574.0000000        2626.9670410       -52.967041016    
 680-22-82       2554.0000000        2626.4091797       -72.409179688    
 680-27-62       2543.0000000        2627.9807129       -84.980712891    
 680-31-335      2516.0000000        2627.5700684       -111.57006836    
 680-39-60       2491.0000000        2627.9614258       -136.96142578    
 680-43-4        2504.0000000        2628.2360840       -124.23608398    
 680-48-362      2506.0000000        2632.1743164       -126.17431641    
 680-56-9        2508.0000000        2631.4169922       -123.41699219    
 680-61-47       2508.0000000        2630.2653809       -122.26538086    
 680-65-357      2540.0000000        2642.6118164       -102.61181641    
 680-71-362      2560.0000000        2651.0783691       -91.078369141    
 684-17-52       2569.0000000        2621.8808594       -52.880859375    
 684-22-37       2552.0000000        2620.2753906       -68.275390625    
 684-26-349      2529.0000000        2622.1396484       -93.139648438    
 684-31-335      2515.0000000        2621.0166016       -106.01660156    
 684-48-362      2497.0000000        2625.5666504       -128.56665039    
 684-56-9        2504.0000000        2624.7028809       -120.70288086    
 684-66-1        2542.0000000        2640.1931152       -98.193115234    
 684-71-362      2561.0000000        2648.1828613       -87.182861328    
 664-1-365       2593.0000000        2626.0893555       -33.089355469    
 654-12-67       2578.0000000        2634.0268555       -56.026855469    
 654-17-52       2574.0000000        2635.9074707       -61.907470703    
 654-22-37       2548.0000000        2634.2365723       -86.236572266    
 654-26-285      2532.0000000        2636.7204590       -104.72045898    
 654-31-335      2524.0000000        2635.3056641       -111.30566406    
 654-38-32       2520.0000000        2634.6987305       -114.69873047    
 654-42-349      2476.0000000        2635.9191895       -159.91918945    
 654-48-343      2493.0000000        2640.5659180       -147.56591797    
 654-56-19       2506.0000000        2639.4794922       -133.47949219    
 654-61-60       2512.0000000        2640.9150391       -128.91503906    
 654-66-49       2540.0000000        2659.7302246       -119.73022461    
 658-32-41       2519.0000000        2638.3791504       -119.37915039    
 658-36-357      2482.0000000        2637.1791992       -155.17919922    
 658-43-4        2484.0000000        2638.9599609       -154.95996094    
 658-48-362      2493.0000000        2643.5161133       -150.51611328    
 658-56-9        2515.0000000        2642.7504883       -127.75048828    
 658-61-47       2509.0000000        2641.5144043       -132.51440430    
 658-65-357      2542.0000000        2654.3964844       -112.39648438    
 658-71-362      2564.0000000        2663.2536621       -99.253662109    
 673-35-360      2507.0000000        2633.2153320       -126.21533203    
 673-56-9        2508.0000000        2638.5717773       -130.57177734    
 673-61-47       2504.0000000        2636.9636230       -132.96362305    
 673-65-357      2527.0000000        2647.5329590       -120.53295898    
 673-70-334      2545.0000000        2655.1469727       -110.14697266    
 673-71-362      2550.0000000        2656.1655273       -106.16552734    
 653-32-41       2506.0000000        2642.6352539       -136.63525391    
 653-39-32       2513.0000000        2642.3037109       -129.30371094    
 653-43-4        2493.0000000        2643.1647949       -150.16479492    
 653-48-362      2495.0000000        2647.5937500       -152.59375000    
 653-56-9        2514.0000000        2646.9948730       -132.99487305    
 653-61-47       2500.0000000        2645.1269531       -145.12695312    
 653-65-357      2517.0000000        2655.1853027       -138.18530273    
 653-71-362      2552.0000000        2663.9868164       -111.98681641    
 642-36-352      2607.0000000        2652.0871582       -45.087158203    
 642-43-4        2588.0000000        2652.4946289       -64.494628906    
 642-48-362      2581.0000000        2653.5981445       -72.598144531    
 642-56-9        2580.0000000        2654.9218750       -74.921875000    
 642-61-47       2572.0000000        2655.2021484       -83.202148438    
 642-65-357      2568.0000000        2655.8286133       -87.828613281    
 642-71-362      2571.0000000        2658.9904785       -87.990478516    
 637-26-295      2608.0000000        2649.0195312       -41.019531250    
 637-31-349      2611.0000000        2649.7790527       -38.779052734    
 637-36-352      2607.0000000        2649.4968262       -42.496826172    
 637-43-4        2578.0000000        2650.4177246       -72.417724609    
 637-48-362      2568.0000000        2652.4113770       -84.411376953    
 637-56-9        2569.0000000        2653.1923828       -84.192382812    
 637-61-47       2559.0000000        2652.7617188       -93.761718750    
 637-65-357      2553.0000000        2655.0710449       -102.07104492    
 637-71-362      2566.0000000        2659.8146973       -93.814697266    
 624-7-99        2610.0000000        2652.9033203       -42.903320312    
 624-12-103      2609.0000000        2653.3708496       -44.370849609    
 624-17-52       2607.0000000        2653.9558105       -46.955810547    
 624-22-39       2605.0000000        2654.9487305       -49.948730469    
 624-27-5        2602.0000000        2655.6103516       -53.610351562    
 624-32-1        2598.0000000        2656.6159668       -58.615966797    
 595-37-32       2599.0000000        2660.4489746       -61.448974609    
 595-43-4        2582.0000000        2661.3344727       -79.334472656    
 595-48-362      2558.0000000        2663.4709473       -105.47094727    
 595-56-9        2570.0000000        2664.4418945       -94.441894531    
 595-61-47       2560.0000000        2663.9042969       -103.90429688    
 595-65-357      2558.0000000        2665.7731934       -107.77319336    
 595-71-362      2564.0000000        2670.6687012       -106.66870117    
 604-31-323      2609.0000000        2661.2102051       -52.210205078    
 604-37-32       2621.0000000        2661.2746582       -40.274658203    
 604-43-4        2602.0000000        2661.8115234       -59.811523438    
 604-48-362      2594.0000000        2663.2431641       -69.243164062    
 604-56-9        2588.0000000        2664.5148926       -76.514892578    
 604-61-47       2574.0000000        2664.5690918       -90.569091797    
 604-65-357      2571.0000000        2665.4631348       -94.463134766    
 604-71-362      2569.0000000        2669.0537109       -100.05371094    
 596-36-352      2575.0000000        2657.6049805       -82.604980469    
 596-43-4        2524.0000000        2659.1923828       -135.19238281    
 596-48-362      2513.0000000        2662.7177734       -149.71777344    
 596-56-9        2539.0000000        2662.9484863       -123.94848633    
 596-61-47       2514.0000000        2661.4538574       -147.45385742    
 596-65-357      2515.0000000        2665.9960938       -150.99609375    
 596-71-362      2556.0000000        2672.6948242       -116.69482422    
 609-43-4        2521.0000000        2652.2778320       -131.27783203    
 609-56-9        2525.0000000        2657.0019531       -132.00195312    
 609-61-47       2518.0000000        2654.9724121       -136.97241211    
 609-65-357      2540.0000000        2667.3791504       -127.37915039    
 609-71-362      2563.0000000        2676.5981445       -113.59814453    
 639-27-10       2551.0000000        2643.2709961       -92.270996094    
 639-66-49       2549.0000000        2662.8820801       -113.88208008    
 626-27-10       2555.0000000        2648.2526855       -93.252685547    
 626-42-349      2510.0000000        2647.3608398       -137.36083984    
 626-48-343      2512.0000000        2652.8122559       -140.81225586    
 626-56-19       2525.0000000        2651.7866211       -126.78662109    
 626-61-60       2519.0000000        2650.9267578       -131.92675781    
 626-66-49       2548.0000000        2666.5764160       -118.57641602    
 635-17-52       2587.0000000        2644.3012695       -57.301269531    
 635-22-38       2568.0000000        2643.8830566       -75.883056641    
 635-26-280      2551.0000000        2645.9357910       -94.935791016    
 635-42-349      2495.0000000        2645.5966797       -150.59667969    
 635-48-343      2520.0000000        2650.7126465       -130.71264648    
 635-56-19       2524.0000000        2649.8149414       -125.81494141    
 635-61-60       2522.0000000        2648.5056152       -126.50561523    
 635-66-49       2547.0000000        2662.4851074       -115.48510742    
 629-11-307      2590.0000000        2643.3698730       -53.369873047    
 629-16-364      2586.0000000        2645.1674805       -59.167480469    
 629-21-332      2577.0000000        2643.2351074       -66.235107422    
 629-26-287      2575.0000000        2646.3151855       -71.315185547    
 629-31-335      2555.0000000        2644.7092285       -89.709228516    
 629-37-32       2545.0000000        2642.8669434       -97.866943359    
 629-48-343      2540.0000000        2650.3161621       -110.31616211    
 629-56-23       2541.0000000        2649.0703125       -108.07031250    
 629-61-60       2574.0000000        2650.6914062       -76.691406250    
 629-66-46       2595.0000000        2670.7937012       -75.793701172    
 628-11-307      2587.0000000        2643.4321289       -56.432128906    
 628-17-52       2582.0000000        2645.1616211       -63.161621094    
 628-36-356      2511.0000000        2643.6066895       -132.60668945    
 628-42-349      2508.0000000        2645.5664062       -137.56640625    
 628-48-343      2521.0000000        2650.9421387       -129.94213867    
 628-56-19       2531.0000000        2649.8320312       -118.83203125    
 628-61-60       2532.0000000        2649.8701172       -117.87011719    
 628-66-46       2549.0000000        2666.9370117       -117.93701172    
 630-12-310      2581.0000000        2641.2199707       -60.219970703    
 630-17-3        2586.0000000        2644.6508789       -58.650878906    
 630-22-38       2558.0000000        2642.3623047       -84.362304688    
 630-27-11       2563.0000000        2645.3566895       -82.356689453    
 630-36-357      2528.0000000        2641.6672363       -113.66723633    
 630-42-350      2531.0000000        2643.9055176       -112.90551758    
 630-48-343      2536.0000000        2649.1608887       -113.16088867    
 630-56-19       2538.0000000        2647.8115234       -109.81152344    
 630-61-60       2582.0000000        2652.4572754       -70.457275391    
 630-66-46       2596.0000000        2676.6843262       -80.684326172    
 631-17-3        2582.0000000        2645.3359375       -63.335937500    
 631-22-32       2552.0000000        2642.4809570       -90.480957031    
 631-26-289      2555.0000000        2645.5747070       -90.574707031    
 631-31-335      2534.0000000        2643.4375000       -109.43750000    
 631-33-335      2527.0000000        2642.9724121       -115.97241211    
 631-42-350      2508.0000000        2644.4909668       -136.49096680    
 631-48-343      2519.0000000        2649.5866699       -130.58666992    
 631-56-19       2524.0000000        2648.0627441       -124.06274414    
 631-61-55       2581.0000000        2652.9116211       -71.911621094    
 631-66-46       2598.0000000        2677.4272461       -79.427246094    
 593-27-11       2564.0000000        2654.3425293       -90.342529297    
 593-61-55       2584.0000000        2659.5800781       -75.580078125    
 593-66-46       2601.0000000        2681.1071777       -80.107177734    
 592-1-365       2597.0000000        2646.4846191       -49.484619141    
 587-7-101       2597.0000000        2647.6799316       -50.679931641    
 587-11-307      2592.0000000        2650.7458496       -58.745849609    
 587-17-53       2588.0000000        2652.9716797       -64.971679688    
 587-26-287      2560.0000000        2654.3996582       -94.399658203    
 587-31-335      2541.0000000        2652.4396973       -111.43969727    
 587-38-60       2529.0000000        2652.5981445       -123.59814453    
 587-42-350      2514.0000000        2653.1586914       -139.15869141    
 587-48-343      2528.0000000        2659.2121582       -131.21215820    
 587-56-19       2533.0000000        2657.5354004       -124.53540039    
 587-61-55       2583.0000000        2655.6428223       -72.642822266    
 587-66-46       2601.0000000        2672.3820801       -71.382080078    
 591-11-333      2581.0000000        2651.1135254       -70.113525391    
 591-17-53       2583.0000000        2653.1823730       -70.182373047    
 591-42-350      2513.0000000        2652.9113770       -139.91137695    
 597-6-79        2592.0000000        2646.5661621       -54.566162109    
 597-11-307      2591.0000000        2650.8251953       -59.825195312    
 597-17-53       2582.0000000        2652.9155273       -70.915527344    
 597-26-287      2562.0000000        2654.3601074       -92.360107422    
 597-42-350      2512.0000000        2652.7319336       -140.73193359    
 597-48-343      2526.0000000        2658.8886719       -132.88867188    
 597-56-19       2531.0000000        2657.3471680       -126.34716797    
 597-61-60       2565.0000000        2659.1931152       -94.193115234    
 597-66-46       2587.0000000        2679.8911133       -92.891113281    
 607-42-349      2527.0000000        2651.0253906       -124.02539062    
 607-48-343      2540.0000000        2657.0441895       -117.04418945    
 607-56-23       2545.0000000        2655.7021484       -110.70214844    
 607-61-60       2554.0000000        2656.3688965       -102.36889648    
 607-66-46       2584.0000000        2675.5861816       -91.586181641    
 568-48-343      2551.0000000        2666.9736328       -115.97363281    
 568-56-10       2554.0000000        2665.5737305       -111.57373047    
 568-61-61       2538.0000000        2663.7404785       -125.74047852    
 560-1-358       2617.0000000        2655.6640625       -38.664062500    
 560-6-340       2617.0000000        2656.0905762       -39.090576172    
 560-10-349      2599.0000000        2658.1389160       -59.138916016    
 545-38-6        2479.0000000        2661.2475586       -182.24755859    
 545-42-356      2524.0000000        2662.8989258       -138.89892578    
 538-1-365       2620.0000000        2663.2167969       -43.216796875    
 517-7-49        2615.0000000        2663.7014160       -48.701416016    
 574-56-24       2534.0000000        2663.1313477       -129.13134766    
 574-61-61       2529.0000000        2660.8820801       -131.88208008    
 574-66-33       2544.0000000        2674.1804199       -130.18041992    
 580-1-365       2614.0000000        2651.4050293       -37.405029297    
 555-8-357       2608.0000000        2658.7573242       -50.757324219    
 555-12-67       2604.0000000        2660.9404297       -56.940429688    
 555-27-10       2570.0000000        2665.6606445       -95.660644531    
 555-31-335      2561.0000000        2664.3310547       -103.33105469    
 555-38-60       2550.0000000        2662.7304688       -112.73046875    
 555-56-24       2557.0000000        2670.0134277       -113.01342773    
 555-61-60       2550.0000000        2666.7990723       -116.79907227    
 555-66-33       2562.0000000        2679.4648438       -117.46484375    
 547-1-365       2616.0000000        2660.6440430       -44.644042969    
 546-27-10       2574.0000000        2668.9370117       -94.937011719    
 539-56-10       2551.0000000        2675.7612305       -124.76123047    
 539-61-60       2539.0000000        2671.7978516       -132.79785156    
 539-66-33       2553.0000000        2683.1406250       -130.14062500    
 573-48-362      2549.0000000        2668.8376465       -119.83764648    
 573-56-9        2550.0000000        2668.2331543       -118.23315430    
 573-71-362      2581.0000000        2682.4423828       -101.44238281    
 808-48-335      2558.0000000        2606.3544922       -48.354492188    
 808-66-33       2546.0000000        2608.2551270       -62.255126953    
 808-71-61       2531.0000000        2609.7370605       -78.737060547    
 807-26-349      2539.0000000        2575.9257812       -36.925781250    
 807-43-4        2524.0000000        2577.2529297       -53.252929688    
 807-48-341      2491.0000000        2579.1967773       -88.196777344    
 805-56-9        2512.0000000        2579.2507324       -67.250732422    
 807-56-9        2486.0000000        2578.7756348       -92.775634766    
 807-61-47       2499.0000000        2577.3518066       -78.351806641    
 805-65-357      2511.0000000        2579.5119629       -68.511962891    
 807-65-357      2507.0000000        2579.0998535       -72.099853516    
 805-71-362      2516.0000000        2583.6628418       -67.662841797    
 807-71-362      2516.0000000        2583.1914062       -67.191406250    
 810-43-4        2471.0000000        2554.4077148       -83.407714844    
 810-48-362      2465.0000000        2556.3713379       -91.371337891    
 810-61-47       2472.0000000        2553.0495605       -81.049560547    
 810-65-357      2509.0000000        2554.5449219       -45.544921875    
 810-71-362      2533.0000000        2557.6870117       -24.687011719    
 767-48-335      2562.0000000        2612.1340332       -50.134033203    
 761-31-335      2494.0000000        2578.8312988       -84.831298828    
 761-37-320      2488.0000000        2578.1020508       -90.102050781    
 761-42-355      2468.0000000        2579.7324219       -111.73242188    
 761-48-342      2479.0000000        2582.1357422       -103.13574219    
 761-56-18       2481.0000000        2581.3632812       -100.36328125    
 761-61-54       2480.0000000        2578.9467773       -98.946777344    
 761-66-33       2511.0000000        2583.2043457       -72.204345703    
 763-42-355      2484.0000000        2587.3261719       -103.32617188    
 763-48-342      2488.0000000        2589.7719727       -101.77197266    
 763-56-18       2488.0000000        2589.0354004       -101.03540039    
 763-61-56       2488.0000000        2586.8659668       -98.865966797    
 763-66-33       2514.0000000        2591.4677734       -77.467773438    
 802-56-9        2469.0000000        2563.5156250       -94.515625000    
 802-61-47       2460.0000000        2560.8911133       -100.89111328    
 802-65-357      2496.0000000        2563.1787109       -67.178710938    
 802-71-362      2515.0000000        2566.8947754       -51.894775391    
 781-61-54       2482.0000000        2567.0876465       -85.087646484    
 781-66-33       2514.0000000        2570.1418457       -56.141845703    
 775-56-27       2485.0000000        2569.9143066       -84.914306641    
 775-61-54       2484.0000000        2567.4733887       -83.473388672    
 775-66-33       2515.0000000        2570.5734863       -55.573486328    
 786-66-33       2504.0000000        2569.4033203       -65.403320312    
 782-26-336      2502.0000000        2565.8825684       -63.882568359    
 782-31-335      2489.0000000        2564.9125977       -75.912597656    
 782-43-4        2455.0000000        2565.9682617       -110.96826172    
 782-48-362      2463.0000000        2567.9001465       -104.90014648    
 782-56-9        2471.0000000        2567.1745605       -96.174560547    
 782-61-47       2456.0000000        2564.8322754       -108.83227539    
 782-65-357      2505.0000000        2567.4658203       -62.465820312    
 782-71-362      2523.0000000        2571.2749023       -48.274902344    
 755-27-12       2512.0000000        2575.5410156       -63.541015625    
 755-31-348      2492.0000000        2574.6960449       -82.696044922    
 755-37-26       2467.0000000        2574.2653809       -107.26538086    
 755-42-357      2472.0000000        2575.7307129       -103.73071289    
 755-48-342      2464.0000000        2577.7705078       -113.77050781    
 755-56-18       2477.0000000        2577.0112305       -100.01123047    
 755-60-320      2475.0000000        2574.5959473       -99.595947266    
 755-65-298      2509.0000000        2578.4914551       -69.491455078    
 755-71-365      2524.0000000        2583.0749512       -59.074951172    
 776-42-354      2621.0000000        2679.8129883       -58.812988281    
 776-48-335      2625.0000000        2680.4326172       -55.432617188    
 776-56-17       2621.0000000        2681.2102051       -60.210205078    
 776-61-53       2616.0000000        2682.0539551       -66.053955078    
 785-32-62       2582.0000000        2633.5983887       -51.598388672    
 785-37-32       2565.0000000        2634.2070312       -69.207031250    
 785-48-334      2578.0000000        2635.6206055       -57.620605469    
 785-56-19       2574.0000000        2636.5600586       -62.560058594    
 785-66-33       2559.0000000        2637.9147949       -78.914794922    
 784-32-62       2579.0000000        2634.1777344       -55.177734375    
 784-66-33       2552.0000000        2638.5048828       -86.504882812    
 777-32-6        2568.0000000        2620.6066895       -52.606689453    
 777-37-32       2563.0000000        2621.1179199       -58.117919922    
 777-42-355      2560.0000000        2621.6909180       -61.690917969    
 777-48-334      2557.0000000        2622.4040527       -65.404052734    
 777-56-18       2552.0000000        2623.4326172       -71.432617188    
 778-42-355      2583.0000000        2621.8105469       -38.810546875    
 778-48-334      2582.0000000        2622.5280762       -40.528076172    
 778-56-18       2572.0000000        2623.5527344       -51.552734375    
 778-60-321      2563.0000000        2624.1325684       -61.132568359    
 778-65-299      2553.0000000        2624.6791992       -71.679199219    
 778-71-365      2542.0000000        2626.0356445       -84.035644531    
 779-42-355      2598.0000000        2621.8105469       -23.810546875    
 779-48-334      2600.0000000        2622.5280762       -22.528076172    
 779-56-18       2594.0000000        2623.5527344       -29.552734375    
 779-60-321      2587.0000000        2624.1325684       -37.132568359    
 779-65-299      2574.0000000        2624.6791992       -50.679199219    
 779-71-365      2564.0000000        2626.0356445       -62.035644531    
 801-36-310      2530.0000000        2612.6223145       -82.622314453    
 797-65-356      2527.0000000        2617.5954590       -90.595458984    
 797-71-362      2516.0000000        2619.0820312       -103.08203125    
 768-42-355      2572.0000000        2618.7829590       -46.782958984    
 768-48-335      2565.0000000        2619.5498047       -54.549804688    
 732-36-316      2606.0000000        2633.4960938       -27.496093750    
 765-32-6        2602.0000000        2629.3671875       -27.367187500    
 765-42-355      2590.0000000        2630.5563965       -40.556396484    
 765-48-348      2588.0000000        2631.2563477       -43.256347656    
 765-56-11       2585.0000000        2632.2302246       -47.230224609    
 765-61-48       2578.0000000        2632.8757324       -54.875732422    
 765-65-356      2569.0000000        2633.4697266       -64.469726562    
 765-71-362      2559.0000000        2634.6848145       -75.684814453    
 718-37-32       2606.0000000        2672.4985352       -66.498535156    
 718-48-334      2620.0000000        2673.6298828       -53.629882812    
 718-56-16       2618.0000000        2674.3540039       -56.354003906    
 718-61-53       2611.0000000        2675.0112305       -64.011230469    
 718-66-32       2605.0000000        2675.8193359       -70.819335938    
 718-71-60       2597.0000000        2676.7482910       -79.748291016    
 728-7-85        2589.0000000        2631.5944824       -42.594482422    
 728-12-124      2591.0000000        2631.6247559       -40.624755859    
 728-17-78       2590.0000000        2631.7778320       -41.777832031    
 728-27-5        2585.0000000        2632.3320312       -47.332031250    
 728-32-6        2583.0000000        2632.7570801       -49.757080078    
 728-37-32       2577.0000000        2633.2089844       -56.208984375    
 728-42-355      2577.0000000        2633.6796875       -56.679687500    
 728-48-334      2571.0000000        2634.4057617       -63.405761719    
 728-56-18       2565.0000000        2635.5124512       -70.512451172    
 681-7-358       2622.0000000        2657.8510742       -35.851074219    
 681-12-103      2627.0000000        2657.8417969       -30.841796875    
 681-17-78       2625.0000000        2657.8654785       -32.865478516    
 681-32-61       2617.0000000        2658.4709473       -41.470947266    
 681-37-32       2608.0000000        2658.9533691       -50.953369141    
 662-71-365      2600.0000000        2689.2189941       -89.218994141    
 616-42-355      2610.0000000        2669.8693848       -59.869384766    
 616-56-16       2613.0000000        2671.2087402       -58.208740234    
 825-71-62       2683.0000000        2808.2976074       -125.29760742    
 608-32-62       2625.0000000        2680.1938477       -55.193847656    
 608-48-348      2612.0000000        2681.4985352       -69.498535156    
 608-56-11       2610.0000000        2682.1540527       -72.154052734    
 608-61-41       2604.0000000        2682.6813965       -78.681396484    
 608-65-355      2598.0000000        2683.2316895       -85.231689453    
 608-71-365      2590.0000000        2684.2814941       -94.281494141    
 559-8-73        2650.0000000        2705.1396484       -55.139648438    
 559-12-60       2648.0000000        2705.1247559       -57.124755859    
 559-17-78       2645.0000000        2705.0893555       -60.089355469    
 559-32-62       2635.0000000        2705.3342285       -70.334228516    
 559-36-335      2633.0000000        2705.6965332       -72.696533203    
 806-71-62       2679.0000000        2809.6467285       -130.64672852    
 771-43-68       2683.0000000        2745.9091797       -62.909179688    
 764-43-68       2679.0000000        2729.2514648       -50.251464844    
 764-48-342      2689.0000000        2730.0358887       -41.035888672    
 764-56-17       2685.0000000        2730.9484863       -45.948486328    
 764-61-60       2681.0000000        2732.5617676       -51.561767578    
 764-66-19       2671.0000000        2733.6926270       -62.692626953    
 764-71-63       2637.0000000        2735.9572754       -98.957275391    
 731-32-61       2676.0000000        2743.9267578       -67.926757812    
 731-42-355      2676.0000000        2742.5771484       -66.577148438    
 730-48-342      2689.0000000        2743.3894043       -54.389404297    
 730-56-17       2682.0000000        2744.7878418       -62.787841797    
 730-60-320      2678.0000000        2746.2995605       -68.299560547    
 730-71-365      2653.0000000        2749.2258301       -96.225830078    
 725-48-343      2682.0000000        2742.1096191       -60.109619141    
 725-56-16       2675.0000000        2743.3127441       -68.312744141    
 725-61-59       2671.0000000        2744.9152832       -73.915283203    
 725-66-19       2660.0000000        2744.9746094       -84.974609375    
 725-71-63       2649.0000000        2747.5229492       -98.522949219    
 683-7-360       2686.0000000        2737.3867188       -51.386718750    
 683-12-102      2682.0000000        2737.2954102       -55.295410156    
 683-17-78       2681.0000000        2737.1269531       -56.126953125    
 683-32-61       2678.0000000        2738.1171875       -60.117187500    
 683-37-32       2678.0000000        2738.9980469       -60.998046875    
 683-48-342      2690.0000000        2739.7626953       -49.762695312    
 528-56-10       2551.0000000        2679.3937988       -128.39379883    
 528-61-56       2563.0000000        2675.5754395       -112.57543945    
 528-66-34       2585.0000000        2686.5739746       -101.57397461    
 532-56-10       2465.0000000        2678.7871094       -213.78710938    
 532-61-56       2464.0000000        2674.8701172       -210.87011719    
 523-42-363      2441.0000000        2673.0449219       -232.04492188    
 523-48-343      2487.0000000        2680.7338867       -193.73388672    
 523-56-10       2443.0000000        2679.4094238       -236.40942383    
 523-61-56       2416.0000000        2675.6845703       -259.68457031    
 506-31-282      2501.0000000        2681.2475586       -180.24755859    
 506-56-10       2455.0000000        2690.3896484       -235.38964844    
 506-60-321      2429.0000000        2685.1713867       -256.17138672    
 516-56-10       2456.0000000        2686.0190430       -230.01904297    
 516-61-56       2430.0000000        2681.5075684       -251.50756836    
 507-17-55       2618.0000000        2681.9028320       -63.902832031    
 507-22-40       2610.0000000        2681.8662109       -71.866210938    
 507-26-299      2574.0000000        2684.2482910       -110.24829102    
 507-31-335      2512.0000000        2682.1149902       -170.11499023    
 507-48-343      2489.0000000        2692.8161621       -203.81616211    
 507-56-10       2454.0000000        2691.7121582       -237.71215820    
 496-17-55       2616.0000000        2691.8496094       -75.849609375    
 496-22-40       2601.0000000        2691.9125977       -90.912597656    
 496-31-335      2517.0000000        2691.8896484       -174.88964844    
 492-56-10       2460.0000000        2702.5507812       -242.55078125    
 492-61-60       2433.0000000        2696.9445801       -263.94458008    
 492-66-31       2444.0000000        2701.4106445       -257.41064453    
 466-56-10       2485.0000000        2723.3630371       -238.36303711    
 466-61-60       2462.0000000        2717.2927246       -255.29272461    
 466-66-34       2469.0000000        2717.2890625       -248.28906250    
 462-56-10       2487.0000000        2726.0439453       -239.04394531    
 462-61-60       2467.0000000        2720.2197266       -253.21972656    
 462-66-34       2471.0000000        2719.5590820       -248.55908203    
 476-56-10       2543.0000000        2711.8718262       -168.87182617    
 476-61-60       2520.0000000        2705.7287598       -185.72875977    
 465-56-10       2488.0000000        2722.9548340       -234.95483398    
 465-61-60       2465.0000000        2716.8081055       -251.80810547    
 465-66-34       2471.0000000        2716.8984375       -245.89843750    
 460-1-365       2621.0000000        2702.9794922       -81.979492188    
 458-38-7        2512.0000000        2711.9035645       -199.90356445    
 458-48-336      2521.0000000        2725.7014160       -204.70141602    
 458-56-10       2500.0000000        2724.5185547       -224.51855469    
 458-61-60       2475.0000000        2718.1567383       -243.15673828    
 458-66-54       2482.0000000        2718.4860840       -236.48608398    
 458-71-34       2477.0000000        2723.4467773       -246.44677734    
 440-38-6        2577.0000000        2716.1757812       -139.17578125    
 440-42-356      2567.0000000        2718.3352051       -151.33520508    
 440-48-337      2577.0000000        2729.5083008       -152.50830078    
 443-1-365       2655.0000000        2709.4284668       -54.428466797    
 439-1-358       2668.0000000        2712.7207031       -44.720703125    
 439-4-350       2664.0000000        2711.9589844       -47.958984375    
 449-10-89       2694.0000000        2710.1184082       -16.118408203    
 418-48-342      2555.0000000        2800.4763184       -245.47631836    
 418-56-18       2536.0000000        2803.3950195       -267.39501953    
 415-48-342      2559.0000000        2790.3181152       -231.31811523    
 415-56-18       2540.0000000        2789.6079102       -249.60791016    
 421-34-313      2575.0000000        2742.2133789       -167.21337891    
 421-48-343      2651.0000000        2761.1237793       -110.12377930    
 421-56-12       2520.0000000        2761.4956055       -241.49560547    
 421-61-60       2505.0000000        2758.0515137       -253.05151367    
 417-34-60       2622.0000000        2750.5375977       -128.53759766    
 412-6-290       2682.0000000        2730.5068359       -48.506835938    
 412-10-297      2676.0000000        2731.6704102       -55.670410156    
 412-17-4        2653.0000000        2737.3007812       -84.300781250    
 412-27-12       2630.0000000        2739.7290039       -109.72900391    
 412-38-6        2587.0000000        2735.1525879       -148.15258789    
 412-42-356      2584.0000000        2738.9780273       -154.97802734    
 412-48-336      2593.0000000        2747.7756348       -154.77563477    
 411-48-336      2587.0000000        2748.9694824       -161.96948242    
 411-56-11       2548.0000000        2746.8398438       -198.83984375    
 411-61-60       2529.0000000        2741.0703125       -212.07031250    
 411-66-54       2524.0000000        2738.4941406       -214.49414062    
 411-71-33       2510.0000000        2741.8498535       -231.84985352    
 405-38-6        2576.0000000        2738.5212402       -162.52124023    
 405-42-355      2545.0000000        2742.8881836       -197.88818359    
 405-48-334      2569.0000000        2750.9401855       -181.94018555    
 405-56-11       2572.0000000        2748.6882324       -176.68823242    
 405-61-60       2539.0000000        2743.1005859       -204.10058594    
 405-66-54       2530.0000000        2740.5461426       -210.54614258    
 405-71-33       2515.0000000        2743.7985840       -228.79858398    
 396-17-4        2673.0000000        2745.4394531       -72.439453125    
 396-27-12       2636.0000000        2747.4848633       -111.48486328    
 396-38-6        2595.0000000        2743.8664551       -148.86645508    
 396-42-355      2564.0000000        2748.6936035       -184.69360352    
 396-48-336      2581.0000000        2755.3632812       -174.36328125    
 393-1-358       2703.0000000        2740.6677246       -37.667724609    
 398-38-6        2565.0000000        2745.9355469       -180.93554688    
 398-42-356      2540.0000000        2751.6215820       -211.62158203    
 387-42-356      2544.0000000        2765.1545410       -221.15454102    
 387-48-336      2564.0000000        2770.3679199       -206.36791992    
 387-56-11       2551.0000000        2766.6823730       -215.68237305    
 387-61-60       2535.0000000        2761.4909668       -226.49096680    
 387-66-54       2531.0000000        2758.2861328       -227.28613281    
 387-71-33       2515.0000000        2759.8662109       -244.86621094    
 386-17-4        2684.0000000        2752.1157227       -68.115722656    
 386-27-12       2644.0000000        2753.7758789       -109.77587891    
 386-48-336      2595.0000000        2761.0568848       -166.05688477    
 381-38-6        2578.0000000        2753.1103516       -175.11035156    
 381-42-356      2574.0000000        2758.0942383       -184.09423828    
 381-48-336      2584.0000000        2763.5651855       -179.56518555    
 361-26-295      2654.0000000        2766.4279785       -112.42797852    
 361-43-14       2526.0000000        2773.4746094       -247.47460938    
 361-56-12       2552.0000000        2774.0090332       -222.00903320    
 361-61-60       2534.0000000        2769.2031250       -235.20312500    
 361-66-31       2524.0000000        2765.9877930       -241.98779297    
 365-1-365       2700.0000000        2753.8574219       -53.857421875    
 364-42-356      2553.0000000        2766.6865234       -213.68652344    
 363-1-365       2702.0000000        2750.4902344       -48.490234375    
 391-56-12       2551.0000000        2776.6228027       -225.62280273    
 391-61-60       2535.0000000        2771.4899902       -236.48999023    
 372-43-14       2535.0000000        2782.1127930       -247.11279297    
 372-56-12       2543.0000000        2778.9038086       -235.90380859    
 372-61-60       2535.0000000        2773.7358398       -238.73583984    
 375-56-19       2559.0000000        2791.8598633       -232.85986328    
 358-56-19       2556.0000000        2799.2680664       -243.26806641    
 350-56-19       2568.0000000        2807.7329102       -239.73291016    
 343-56-19       2566.0000000        2814.1892090       -248.18920898    
 345-43-6        2552.0000000        2826.8889160       -274.88891602    
 356-56-12       2558.0000000        2786.2241211       -228.22412109    
 356-61-60       2544.0000000        2781.2202148       -237.22021484    
 352-17-4        2694.0000000        2775.4060059       -81.406005859    
 352-22-51       2686.0000000        2776.0200195       -90.020019531    
 352-27-14       2662.0000000        2777.2822266       -115.28222656    
 342-37-342      2587.0000000        2796.1516113       -209.15161133    
 342-43-14       2567.0000000        2805.9257812       -238.92578125    
 349-27-13       2659.0000000        2766.9221191       -107.92211914    
 348-56-11       2621.0000000        2771.6555176       -150.65551758    
 348-61-54       2610.0000000        2768.8999023       -158.89990234    
 348-66-35       2604.0000000        2765.6940918       -161.69409180    
 351-3-56        2741.0000000        2764.5568848       -23.556884766    
 351-22-46       2687.0000000        2771.2705078       -84.270507812    
 351-27-62       2672.0000000        2772.5686035       -100.56860352    
 351-37-342      2622.0000000        2771.3332520       -149.33325195    
 351-43-14       2621.0000000        2776.1816406       -155.18164062    
 351-48-337      2632.0000000        2780.5898438       -148.58984375    
 351-56-11       2632.0000000        2777.3085938       -145.30859375    
 351-61-54       2623.0000000        2773.8928223       -150.89282227    
 351-66-35       2620.0000000        2770.6274414       -150.62744141    
 346-17-4        2697.0000000        2776.6975098       -79.697509766    
 346-27-14       2658.0000000        2777.3784180       -119.37841797    
 347-11-304      2719.0000000        2771.4499512       -52.449951172    
 347-17-59       2705.0000000        2774.8015137       -69.801513672    
 347-22-46       2680.0000000        2775.3984375       -95.398437500    
 347-27-14       2664.0000000        2776.3305664       -112.33056641    
 347-31-335      2647.0000000        2773.3535156       -126.35351562    
 347-56-11       2625.0000000        2781.5173340       -156.51733398    
 347-61-54       2617.0000000        2778.1252441       -161.12524414    
 347-66-35       2608.0000000        2774.6752930       -166.67529297    
 341-17-4        2701.0000000        2776.3710938       -75.371093750    
 524-37-354      2605.0000000        2672.8911133       -67.891113281    
 524-43-4        2599.0000000        2673.8276367       -74.827636719    
 524-48-335      2592.0000000        2675.9406738       -83.940673828    
 524-56-9        2592.0000000        2676.9069824       -84.906982422    
 524-61-47       2583.0000000        2676.4206543       -93.420654297    
 524-65-357      2580.0000000        2677.8312988       -97.831298828    
 524-71-362      2584.0000000        2681.7111816       -97.711181641    
 3418-43-4       2540.0000000        2671.9741211       -131.97412109    
 3418-48-362     2529.0000000        2675.3015137       -146.30151367    
 3418-56-9       2554.0000000        2676.0622559       -122.06225586    
 3418-65-357     2528.0000000        2676.7880859       -148.78808594    
 3418-71-362     2567.0000000        2683.0166016       -116.01660156    
 525-35-347      2563.0000000        2669.6787109       -106.67871094    
 525-56-9        2518.0000000        2676.3027344       -158.30273438    
 525-71-362      2568.0000000        2685.6215820       -117.62158203    
 514-31-335      2560.0000000        2675.9572754       -115.95727539    
 514-36-360      2541.0000000        2673.3776855       -132.37768555    
 514-43-4        2545.0000000        2675.9660645       -130.96606445    
 514-48-362      2545.0000000        2682.4289551       -137.42895508    
 514-56-9        2548.0000000        2681.8642578       -133.86425781    
 514-61-47       2536.0000000        2677.9777832       -141.97778320    
 514-65-357      2542.0000000        2683.7133789       -141.71337891    
 514-71-362      2568.0000000        2691.8710938       -123.87109375    
 513-32-41       2552.0000000        2677.6552734       -125.65527344    
 513-39-60       2558.0000000        2677.3703613       -119.37036133    
 513-43-4        2538.0000000        2677.4819336       -139.48193359    
 513-48-362      2544.0000000        2684.9978027       -140.99780273    
 513-56-9        2553.0000000        2684.0817871       -131.08178711    
 513-61-47       2533.0000000        2679.3569336       -146.35693359    
 513-65-357      2541.0000000        2686.5319824       -145.53198242    
 513-71-362      2568.0000000        2695.1782227       -127.17822266    
 526-11-307      2603.0000000        2669.8666992       -66.866699219    
 526-17-53       2591.0000000        2672.7431641       -81.743164062    
 526-22-38       2579.0000000        2672.7995605       -93.799560547    
 487-17-4        2600.0000000        2688.6665039       -88.666503906    
 487-27-10       2590.0000000        2692.1110840       -102.11108398    
 487-38-6        2565.0000000        2688.2619629       -123.26196289    
 487-42-356      2539.0000000        2689.9626465       -150.96264648    
 494-42-355      2519.0000000        2689.0793457       -170.07934570    
 494-48-334      2533.0000000        2697.8178711       -164.81787109    
 494-56-10       2544.0000000        2696.5783691       -152.57836914    
 494-61-60       2518.0000000        2691.0944824       -173.09448242    
 494-66-49       2535.0000000        2697.1359863       -162.13598633    
 494-71-33       2549.0000000        2703.3247070       -154.32470703    
 530-38-6        2527.0000000        2670.7631836       -143.76318359    
 530-48-334      2529.0000000        2680.4094238       -151.40942383    
 530-56-10       2531.0000000        2678.9218750       -147.92187500    
 530-61-60       2523.0000000        2675.2145996       -152.21459961    
 530-66-49       2543.0000000        2686.4423828       -143.44238281    
 530-71-33       2549.0000000        2693.6408691       -144.64086914    
 509-38-6        2536.0000000        2681.5073242       -145.50732422    
 509-42-355      2502.0000000        2683.0598145       -181.05981445    
 509-48-334      2532.0000000        2692.2695312       -160.26953125    
 509-56-10       2532.0000000        2690.7207031       -158.72070312    
 509-61-60       2516.0000000        2685.4243164       -169.42431641    
 509-66-49       2535.0000000        2693.7756348       -158.77563477    
 509-71-33       2542.0000000        2700.5883789       -158.58837891    
 518-17-3        2603.0000000        2677.3984375       -74.398437500    
 518-27-11       2565.0000000        2679.3369141       -114.33691406    
 518-42-355      2539.0000000        2676.6821289       -137.68212891    
 510-1-358       2622.0000000        2674.5627441       -52.562744141    
 495-1-358       2628.0000000        2684.3198242       -56.319824219    
 491-7-49        2629.0000000        2683.9272461       -54.927246094    
 490-7-49        2623.0000000        2684.2060547       -61.206054688    
 490-17-4        2607.0000000        2690.1582031       -83.158203125    
 490-27-10       2601.0000000        2693.3984375       -92.398437500    
 481-38-7        2576.0000000        2693.9460449       -117.94604492    
 481-42-355      2557.0000000        2695.5361328       -138.53613281    
 481-48-334      2565.0000000        2705.7170410       -140.71704102    
 481-56-10       2566.0000000        2704.1875000       -138.18750000    
 481-61-60       2548.0000000        2697.8896484       -149.88964844    
 481-66-49       2562.0000000        2702.9077148       -140.90771484    
 481-71-33       2568.0000000        2708.8942871       -140.89428711    
 473-38-7        2580.0000000        2697.1140137       -117.11401367    
 473-42-355      2563.0000000        2698.4516602       -135.45166016    
 484-38-6        2395.0000000        2692.7019043       -297.70190430    
 455-22-51       2600.0000000        2705.8476562       -105.84765625    
 455-27-11       2605.0000000        2709.0068359       -104.00683594    
 455-38-7        2560.0000000        2705.1062012       -145.10620117    
 455-42-355      2542.0000000        2707.3020020       -165.30200195    
 455-48-336      2559.0000000        2717.0805664       -158.08056641    
 457-1-358       2645.0000000        2703.6181641       -58.618164062    
 456-38-6        2573.0000000        2706.5341797       -133.53417969    
 456-42-356      2540.0000000        2708.8295898       -168.82958984    
 456-48-334      2557.0000000        2718.8261719       -161.82617188    
 456-56-10       2556.0000000        2717.3730469       -161.37304688    
 456-61-60       2533.0000000        2711.0412598       -178.04125977    
 456-66-54       2542.0000000        2713.2583008       -171.25830078    
 456-71-33       2543.0000000        2718.4182129       -175.41821289    
 454-8-253       2652.0000000        2700.4863281       -48.486328125    
 454-38-6        2572.0000000        2705.0715332       -133.07153320    
 454-42-355      2549.0000000        2707.2250977       -158.22509766    
 454-48-334      2559.0000000        2717.0219727       -158.02197266    
 454-56-10       2567.0000000        2715.6247559       -148.62475586    
 454-61-60       2542.0000000        2709.3352051       -167.33520508    
 454-66-49       2551.0000000        2711.7363281       -160.73632812    
 454-71-33       2555.0000000        2716.9416504       -161.94165039    
 483-48-334      2555.0000000        2702.1091309       -147.10913086    
 475-1-365       2620.0000000        2691.4711914       -71.471191406    
 472-17-4        2609.0000000        2695.6738281       -86.673828125    
 472-27-12       2590.0000000        2699.3579102       -109.35791016    
 472-38-6        2566.0000000        2695.5456543       -129.54565430    
 472-42-355      2533.0000000        2697.4414062       -164.44140625    
 472-48-334      2548.0000000        2707.1689453       -159.16894531    
 464-17-4        2599.0000000        2699.0092773       -100.00927734    
 464-27-12       2591.0000000        2702.2099609       -111.20996094    
 464-48-336      2546.0000000        2709.9572754       -163.95727539    
 442-71-61       2631.0000000        2705.9252930       -74.925292969    
 438-48-336      2577.0000000        2720.2949219       -143.29492188    
 436-71-336      2533.0000000        2720.7338867       -187.73388672    
 422-17-55       2653.0000000        2720.8359375       -67.835937500    
 422-22-38       2624.0000000        2721.8825684       -97.882568359    
 422-27-12       2625.0000000        2724.6088867       -99.608886719    
 422-31-335      2595.0000000        2723.2556152       -128.25561523    
 422-38-91       2581.0000000        2721.2912598       -140.29125977    
 426-48-336      2582.0000000        2727.8610840       -145.86108398    
 426-56-13       2579.0000000        2726.7553711       -147.75537109    
 426-66-34       2577.0000000        2720.8090820       -143.80908203    
 430-7-49        2654.0000000        2712.9621582       -58.962158203    
 430-17-4        2626.0000000        2719.0437012       -93.043701172    
 430-27-10       2612.0000000        2722.4460449       -110.44604492    
 432-38-6        2588.0000000        2715.0893555       -127.08935547    
 432-42-356      2564.0000000        2717.4101562       -153.41015625    
 432-48-334      2580.0000000        2727.4702148       -147.47021484    
 432-56-10       2578.0000000        2725.9479980       -147.94799805    
 432-61-60       2553.0000000        2719.5444336       -166.54443359    
 432-66-49       2562.0000000        2720.0588379       -158.05883789    
 432-71-33       2563.0000000        2724.7026367       -161.70263672    
 452-48-335      2553.0000000        2721.6328125       -168.63281250    
 452-56-11       2550.0000000        2720.0007324       -170.00073242    
 431-1-358       2659.0000000        2713.0571289       -54.057128906    
 431-6-340       2656.0000000        2713.2727051       -57.272705078    
 431-11-333      2649.0000000        2715.7395020       -66.739501953    
 431-36-38       2623.0000000        2715.5524902       -92.552490234    
 429-42-356      2535.0000000        2719.4443359       -184.44433594    
 429-48-334      2555.0000000        2728.9169922       -173.91699219    
 429-56-11       2556.0000000        2727.4494629       -171.44946289    
 429-61-60       2526.0000000        2721.3388672       -195.33886719    
 429-66-54       2537.0000000        2721.6086426       -184.60864258    
 429-71-33       2536.0000000        2726.0810547       -190.08105469    
 420-17-7        2664.0000000        2726.8491211       -62.849121094    
 420-27-10       2631.0000000        2730.1525879       -99.152587891    
 420-48-335      2595.0000000        2738.0319824       -143.03198242    
 407-38-6        2581.0000000        2736.6545410       -155.65454102    
 407-42-355      2554.0000000        2739.8427734       -185.84277344    
 407-48-334      2561.0000000        2748.4790039       -187.47900391    
 401-38-6        2603.0000000        2738.5490723       -135.54907227    
 401-42-355      2590.0000000        2741.5910645       -151.59106445    
 401-48-335      2603.0000000        2749.8535156       -146.85351562    
 410-42-355      2552.0000000        2735.9082031       -183.90820312    
 410-48-334      2569.0000000        2744.5202637       -175.52026367    
 410-56-10       2565.0000000        2742.6186523       -177.61865234    
 410-61-60       2542.0000000        2736.8732910       -194.87329102    
 410-66-49       2542.0000000        2735.2282715       -193.22827148    
 410-71-33       2532.0000000        2738.8137207       -206.81372070    
 376-31-348      2628.0000000        2723.2463379       -95.246337891    
 376-37-19       2619.0000000        2721.0227051       -102.02270508    
 376-43-47       2613.0000000        2723.9338379       -110.93383789    
 376-48-343      2612.0000000        2730.6674805       -118.66748047    
 376-56-11       2610.0000000        2730.2626953       -120.26269531    
 376-60-321      2601.0000000        2726.7307129       -125.73071289    
 376-65-298      2592.0000000        2725.2849121       -133.28491211    
 414-71-365      2596.0000000        2729.7768555       -133.77685547    
 416-34-357      2620.0000000        2721.7902832       -101.79028320    
 366-17-55       2706.0000000        2744.8540039       -38.854003906    
 366-22-33       2684.0000000        2746.3542480       -62.354248047    
 366-27-10       2661.0000000        2747.9509277       -86.950927734    
 366-33-10       2665.0000000        2748.4875488       -83.487548828    
 370-17-55       2688.0000000        2748.3791504       -60.379150391    
 370-22-46       2656.0000000        2749.3300781       -93.330078125    
 370-31-335      2635.0000000        2749.7692871       -114.76928711    
 370-37-91       2621.0000000        2747.9670410       -126.96704102    
 394-27-10       2646.0000000        2744.6262207       -98.626220703    
 389-42-355      2540.0000000        2747.0031738       -207.00317383    
 389-48-334      2565.0000000        2754.6718750       -189.67187500    
 389-56-10       2558.0000000        2752.5034180       -194.50341797    
 389-61-60       2538.0000000        2747.2377930       -209.23779297    
 389-66-48       2533.0000000        2744.9418945       -211.94189453    
 389-71-33       2536.0000000        2747.7719727       -211.77197266    
 382-48-334      2611.0000000        2756.4479980       -145.44799805    
 395-17-4        2679.0000000        2743.2883301       -64.288330078    
 395-27-13       2665.0000000        2745.4145508       -80.414550781    
 395-38-6        2584.0000000        2741.6518555       -157.65185547    
 395-42-356      2555.0000000        2745.3349609       -190.33496094    
 395-48-334      2577.0000000        2752.4875488       -175.48754883    
 395-56-11       2573.0000000        2750.2094727       -177.20947266    
 395-61-60       2524.0000000        2745.4201660       -221.42016602    
 395-66-54       2507.0000000        2742.2104492       -235.21044922    
 395-71-33       2530.0000000        2744.9011230       -214.90112305    
 379-42-356      2562.0000000        2751.2014160       -189.20141602    
 379-48-334      2586.0000000        2757.3066406       -171.30664062    
 379-56-11       2583.0000000        2755.0595703       -172.05957031    
 385-7-49        2700.0000000        2742.3457031       -42.345703125    
 384-7-49        2698.0000000        2742.0729980       -44.072998047    
 374-1-358       2693.0000000        2745.3242188       -52.324218750    
 362-38-6        2600.0000000        2758.8422852       -158.84228516    
 362-42-355      2577.0000000        2763.4064941       -186.40649414    
 362-48-334      2593.0000000        2769.5107422       -176.51074219    
 362-56-10       2592.0000000        2766.6962891       -174.69628906    
 362-61-60       2572.0000000        2762.1848145       -190.18481445    
 362-66-48       2562.0000000        2759.3298340       -197.32983398    
 362-71-33       2575.0000000        2761.7431641       -186.74316406    
 360-26-313      2647.0000000        2757.3027344       -110.30273438    
 360-38-6        2600.0000000        2755.0830078       -155.08300781    
 371-38-6        2598.0000000        2749.9348145       -151.93481445    
 371-42-355      2579.0000000        2753.3269043       -174.32690430    
 355-48-342      2616.0000000        2766.1008301       -150.10083008    
 355-56-13       2614.0000000        2764.1232910       -150.12329102    
 355-61-61       2600.0000000        2761.0454102       -161.04541016    
 355-66-32       2588.0000000        2758.2968750       -170.29687500    
 353-1-365       2705.0000000        2756.9145508       -51.914550781    
 353-8-22        2704.0000000        2757.7749023       -53.774902344    
 353-11-304      2703.0000000        2759.0576172       -56.057617188    
 353-61-61       2610.0000000        2764.3967285       -154.39672852    
 353-66-32       2603.0000000        2761.6618652       -158.66186523    
 501-27-60       2646.0000000        2716.7895508       -70.789550781    
 501-37-32       2639.0000000        2717.1750488       -78.175048828    
 501-43-53       2640.0000000        2717.4924316       -77.492431641    
 501-48-336      2640.0000000        2717.8300781       -77.830078125    
 501-56-17       2639.0000000        2718.3256836       -79.325683594    
 501-60-320      2639.0000000        2718.6987305       -79.698730469    
 501-65-299      2639.0000000        2719.1525879       -80.152587891    
 501-71-365      2638.0000000        2715.2895508       -77.289550781    
 536-61-52       2579.0000000        2675.7949219       -96.794921875    
 536-66-18       2575.0000000        2676.0793457       -101.07934570    
 536-71-62       2575.0000000        2677.9455566       -102.94555664    
 540-43-50       2603.0000000        2672.1091309       -69.109130859    
 540-56-17       2588.0000000        2674.5383301       -86.538330078    
 451-37-32       2707.0000000        2764.8618164       -57.861816406    
 451-43-53       2715.0000000        2765.0444336       -50.044433594    
 451-48-336      2727.0000000        2765.2731934       -38.273193359    
 451-56-17       2744.0000000        2765.6359863       -21.635986328    
 451-61-52       2743.0000000        2765.9416504       -22.941650391    
 451-71-336      2764.0000000        2766.8520508       -2.8520507812    
 419-71-61       2695.0000000        2728.0097656       -33.009765625    
 425-71-61       2749.0000000        2769.9125977       -20.912597656    
 397-48-336      2815.0000000        2788.4975586        26.502441406    
 378-71-61       2711.0000000        2769.7817383       -58.781738281    
 477-7-99        2664.0000000        2687.7338867       -23.733886719    
 477-11-60       2664.0000000        2687.7377930       -23.737792969    
 477-17-53       2663.0000000        2688.0139160       -25.013916016    
 477-22-39       2662.0000000        2688.4924316       -26.492431641    
 477-32-6        2659.0000000        2689.7937012       -30.793701172    
 477-37-32       2648.0000000        2690.2680664       -42.268066406    
 478-48-335      2652.0000000        2690.8322754       -38.832275391    
 478-56-17       2645.0000000        2692.4990234       -47.499023438    
 218-42-337      3145.0000000        3040.2622070        104.73779297    
 337-37-343      2555.0000000        2788.0593262       -233.05932617    
 337-43-14       2542.0000000        2794.1843262       -252.18432617    
 337-56-12       2564.0000000        2795.4909668       -231.49096680    
 337-61-61       2546.0000000        2790.9340820       -244.93408203    
 337-66-31       2536.0000000        2787.8125000       -251.81250000    
 328-56-11       2652.0000000        2793.1777344       -141.17773438    
 328-61-61       2636.0000000        2789.4414062       -153.44140625    
 328-66-32       2627.0000000        2786.2639160       -159.26391602    
 329-1-365       2746.0000000        2784.5915527       -38.591552734    
 327-1-365       2754.0000000        2785.6853027       -31.685302734    
 326-26-319      2678.0000000        2797.1057129       -119.10571289    
 326-31-335      2666.0000000        2795.1374512       -129.13745117    
 326-38-32       2654.0000000        2798.3425293       -144.34252930    
 326-56-11       2626.0000000        2805.1254883       -179.12548828    
 326-61-54       2609.0000000        2800.4455566       -191.44555664    
 326-66-32       2598.0000000        2797.0439453       -199.04394531    
 321-43-14       2563.0000000        2813.8337402       -250.83374023    
 321-56-12       2596.0000000        2813.0307617       -217.03076172    
 322-1-358       2756.0000000        2789.9296875       -33.929687500    
 322-6-340       2750.0000000        2790.6499023       -40.649902344    
 322-11-333      2738.0000000        2793.9887695       -55.988769531    
 322-16-301      2717.0000000        2799.5451660       -82.545166016    
 322-22-46       2703.0000000        2798.9165039       -95.916503906    
 322-27-32       2691.0000000        2799.2739258       -108.27392578    
 308-34-333      2660.0000000        2810.1997070       -150.19970703    
 316-7-283       2748.0000000        2793.2954102       -45.295410156    
 316-11-333      2738.0000000        2795.4724121       -57.472412109    
 316-16-301      2734.0000000        2800.9062500       -66.906250000    
 316-22-46       2699.0000000        2800.5058594       -101.50585938    
 316-27-11       2692.0000000        2800.7060547       -108.70605469    
 316-31-335      2674.0000000        2798.5961914       -124.59619141    
 316-38-32       2663.0000000        2800.4033203       -137.40332031    
 316-48-337      2639.0000000        2812.8637695       -173.86376953    
 316-56-11       2632.0000000        2807.5942383       -175.59423828    
 316-60-321      2616.0000000        2802.5576172       -186.55761719    
 316-65-300      2582.0000000        2799.7746582       -217.77465820    
 310-1-365       2757.0000000        2793.7983398       -36.798339844    
 310-27-49       2692.0000000        2803.6625977       -111.66259766    
 310-56-11       2649.0000000        2810.5791016       -161.57910156    
 310-61-54       2633.0000000        2805.7958984       -172.79589844    
 310-66-32       2621.0000000        2802.4335938       -181.43359375    
 324-1-365       2740.0000000        2784.7807617       -44.780761719    
 307-56-11       2680.0000000        2808.2924805       -128.29248047    
 335-1-365       2755.0000000        2781.2893066       -26.289306641    
 333-56-9        2601.0000000        2804.0817871       -203.08178711    
 323-56-11       2640.0000000        2806.1647949       -166.16479492    
 323-61-61       2610.0000000        2801.5532227       -191.55322266    
 311-17-5        2717.0000000        2808.5830078       -91.583007812    
 311-27-14       2682.0000000        2808.4680176       -126.46801758    
 314-56-25       2590.0000000        2819.0209961       -229.02099609    
 314-61-62       2580.0000000        2813.3022461       -233.30224609    
 318-48-343      2595.0000000        2844.5869141       -249.58691406    
 302-42-348      2592.0000000        2843.9697266       -251.96972656    
 301-22-62       2697.0000000        2820.5671387       -123.56713867    
 301-27-6        2674.0000000        2820.8884277       -146.88842773    
 301-38-32       2639.0000000        2829.0126953       -190.01269531    
 295-22-62       2740.0000000        2828.3454590       -88.345458984    
 295-38-5        2669.0000000        2840.2331543       -171.23315430    
 295-56-24       2659.0000000        2848.6076660       -189.60766602    
 295-66-32       2645.0000000        2838.2055664       -193.20556641    
 281-38-5        2639.0000000        2845.5212402       -206.52124023    
 281-42-348      2619.0000000        2856.6972656       -237.69726562    
 270-22-62       2711.0000000        2839.6389160       -128.63891602    
 270-38-32       2656.0000000        2852.6042480       -196.60424805    
 271-38-5        2645.0000000        2848.5031738       -203.50317383    
 271-42-348      2625.0000000        2859.4396973       -234.43969727    
 271-48-337      2650.0000000        2865.3676758       -215.36767578    
 271-56-10       2638.0000000        2858.6994629       -220.69946289    
 271-61-61       2623.0000000        2850.8630371       -227.86303711    
 271-66-61       2620.0000000        2847.7878418       -227.78784180    
 290-56-25       2624.0000000        2834.5068359       -210.50683594    
 290-61-62       2610.0000000        2827.9926758       -217.99267578    
 280-17-4        2729.0000000        2830.8405762       -101.84057617    
 280-27-14       2698.0000000        2830.1848145       -132.18481445    
 278-7-274       2772.0000000        2818.5432129       -46.543212891    
 274-7-274       2767.0000000        2815.0849609       -48.084960938    
 274-38-7        2670.0000000        2824.6596680       -154.65966797    
 274-42-355      2647.0000000        2832.1926270       -185.19262695    
 274-48-335      2671.0000000        2840.8415527       -169.84155273    
 274-56-11       2668.0000000        2834.3654785       -166.36547852    
 279-17-5        2745.0000000        2822.0368652       -77.036865234    
 279-42-355      2665.0000000        2828.9362793       -163.93627930    
 282-42-355      2655.0000000        2832.0373535       -177.03735352    
 282-48-335      2666.0000000        2840.1625977       -174.16259766    
 282-56-11       2674.0000000        2834.1625977       -160.16259766    
 282-61-60       2656.0000000        2828.1596680       -172.15966797    
 282-66-48       2645.0000000        2825.0742188       -180.07421875    
 265-42-355      2668.0000000        2842.3198242       -174.31982422    
 265-48-335      2690.0000000        2850.9565430       -160.95654297    
 265-56-11       2688.0000000        2845.0043945       -157.00439453    
 265-61-60       2671.0000000        2838.7753906       -167.77539062    
 265-66-48       2660.0000000        2835.8012695       -175.80126953    
 265-71-34       2645.0000000        2834.4448242       -189.44482422    
 264-38-7        2690.0000000        2831.3010254       -141.30102539    
 264-42-355      2677.0000000        2839.0529785       -162.05297852    
 264-48-335      2699.0000000        2848.0925293       -149.09252930    
 264-56-11       2697.0000000        2841.7888184       -144.78881836    
 264-61-60       2681.0000000        2835.7211914       -154.72119141    
 264-66-48       2672.0000000        2832.6782227       -160.67822266    
 264-71-34       2654.0000000        2831.3068848       -177.30688477    
 268-1-365       2783.0000000        2819.7949219       -36.794921875    
 268-38-7        2681.0000000        2832.4489746       -151.44897461    
 268-43-47       2665.0000000        2840.4870605       -175.48706055    
 268-48-335      2686.0000000        2849.3657227       -163.36572266    
 250-7-274       2785.0000000        2831.2065430       -46.206542969    
 250-17-5        2760.0000000        2840.8642578       -80.864257812    
 250-38-7        2695.0000000        2842.7412109       -147.74121094    
 250-42-355      2675.0000000        2851.2072754       -176.20727539    
 250-56-11       2696.0000000        2853.5930176       -157.59301758    
 250-61-60       2679.0000000        2846.7978516       -167.79785156    
 250-66-48       2666.0000000        2843.7153320       -177.71533203    
 250-71-34       2638.0000000        2842.1816406       -204.18164062    
 252-48-335      2702.0000000        2855.6169434       -153.61694336    
 256-42-355      2668.0000000        2851.9086914       -183.90869141    
 256-48-335      2696.0000000        2860.1516113       -164.15161133    
 256-56-11       2694.0000000        2853.8371582       -159.83715820    
 256-61-60       2678.0000000        2846.8483887       -168.84838867    
 256-66-48       2664.0000000        2843.6420898       -179.64208984    
 256-71-34       2646.0000000        2841.9904785       -195.99047852    
 261-17-5        2756.0000000        2841.2004395       -85.200439453    
 261-17-64       2755.0000000        2840.7915039       -85.791503906    
 261-22-41       2740.0000000        2840.8862305       -100.88623047    
 262-48-338      2688.0000000        2862.0776367       -174.07763672    
 262-56-9        2670.0000000        2855.7209473       -185.72094727    
 262-61-62       2657.0000000        2848.2714844       -191.27148438    
 247-1-365       2801.0000000        2836.2360840       -35.236083984    
 247-7-291       2788.0000000        2839.1489258       -51.148925781    
 247-27-11       2742.0000000        2849.0004883       -107.00048828    
 266-36-1        2669.0000000        2847.5512695       -178.55126953    
 260-48-338      2665.0000000        2872.9208984       -207.92089844    
 259-56-9        2660.0000000        2869.2709961       -209.27099609    
 259-61-62       2645.0000000        2860.9025879       -215.90258789    
 259-66-47       2639.0000000        2857.9560547       -218.95605469    
 259-71-35       2623.0000000        2855.8688965       -232.86889648    
 269-38-4        2752.0000000        2898.7585449       -146.75854492    
 269-42-337      2753.0000000        2911.1364746       -158.13647461    
 269-48-337      2751.0000000        2911.2519531       -160.25195312    
 269-56-10       2789.0000000        2909.4301758       -120.43017578    
 269-61-61       2739.0000000        2897.7072754       -158.70727539    
 269-66-61       2740.0000000        2893.8984375       -153.89843750    
 257-56-10       2794.0000000        2917.4907227       -123.49072266    
 257-61-61       2727.0000000        2904.4804688       -177.48046875    
 257-66-61       2727.0000000        2900.4797363       -173.47973633    
 254-38-4        2773.0000000        2913.5205078       -140.52050781    
 254-42-337      2764.0000000        2923.2265625       -159.22656250    
 253-48-337      2672.0000000        2891.6232910       -219.62329102    
 253-56-10       2666.0000000        2888.7541504       -222.75415039    
 253-61-61       2650.0000000        2878.8835449       -228.88354492    
 253-66-61       2644.0000000        2875.8701172       -231.87011719    
 248-38-5        3160.0000000        3146.9675293        13.032470703    
 248-42-337      3166.0000000        3164.6191406        1.3808593750    
 248-48-337      3163.0000000        3101.5314941        61.468505859    
 241-48-337      2702.0000000        2899.2731934       -197.27319336    
 241-56-10       2707.0000000        2898.5039062       -191.50390625    
 241-61-61       2686.0000000        2887.9130859       -201.91308594    
 241-66-61       2675.0000000        2884.9594727       -209.95947266    
 229-48-337      2738.0000000        2905.9995117       -167.99951172    
 229-56-11       2746.0000000        2906.6215820       -160.62158203    
 242-38-4        2809.0000000        2923.7463379       -114.74633789    
 242-42-337      2781.0000000        2931.5058594       -150.50585938    
 243-56-10       2838.0000000        2941.7050781       -103.70507812    
 238-56-10       2830.0000000        2942.0004883       -112.00048828    
 235-56-10       2846.0000000        2946.5439453       -100.54394531    
 228-38-5        2831.0000000        2931.5239258       -100.52392578    
 228-42-348      2788.0000000        2938.0910645       -150.09106445    
 228-48-337      2776.0000000        2933.5683594       -157.56835938    
 230-48-337      2783.0000000        2935.6462402       -152.64624023    
 230-56-10       2815.0000000        2948.0512695       -133.05126953    
 232-31-335      2744.0000000        2862.2778320       -118.27783203    
 232-37-361      2729.0000000        2872.4560547       -143.45605469    
 232-48-337      2731.0000000        2888.8608398       -157.86083984    
 232-56-9        2734.0000000        2884.8051758       -150.80517578    
 232-61-62       2717.0000000        2876.1896973       -159.18969727    
 232-66-47       2700.0000000        2873.5266113       -173.52661133    
 232-71-35       2670.0000000        2871.6291504       -201.62915039    
 237-17-5        2766.0000000        2855.4462891       -89.446289062    
 237-27-11       2752.0000000        2855.6206055       -103.62060547    
 237-37-357      2710.0000000        2860.6860352       -150.68603516    
 237-42-355      2690.0000000        2870.0151367       -180.01513672    
 237-48-335      2716.0000000        2877.9580078       -161.95800781    
 237-56-11       2716.0000000        2872.5202637       -156.52026367    
 237-61-60       2699.0000000        2864.8544922       -165.85449219    
 237-66-48       2684.0000000        2861.9306641       -177.93066406    
 237-71-34       2664.0000000        2860.1074219       -196.10742188    
 239-1-365       2805.0000000        2837.1562500       -32.156250000    
 239-42-355      2688.0000000        2859.9829102       -171.98291016    
 240-22-1        2744.0000000        2849.5517578       -105.55175781    
 240-38-7        2714.0000000        2852.3146973       -138.31469727    
 240-48-335      2719.0000000        2869.8669434       -150.86694336    
 240-56-10       2718.0000000        2863.7871094       -145.78710938    
 240-66-48       2686.0000000        2853.6149902       -167.61499023    
 240-71-34       2661.0000000        2851.9812012       -190.98120117    
 231-48-335      2732.0000000        2874.7709961       -142.77099609    
 231-56-10       2732.0000000        2869.0346680       -137.03466797    
 233-17-5        2781.0000000        2853.7863770       -72.786376953    
 233-38-7        2712.0000000        2854.8288574       -142.82885742    
 233-42-355      2695.0000000        2863.7631836       -168.76318359    
 234-42-355      2694.0000000        2865.7077637       -171.70776367    
 234-48-335      2714.0000000        2874.3505859       -160.35058594    
 234-56-10       2718.0000000        2868.4951172       -150.49511719    
 234-60-322      2701.0000000        2861.1252441       -160.12524414    
 234-66-48       2688.0000000        2858.3691406       -170.36914062    
 234-71-34       2667.0000000        2856.7365723       -189.73657227    
 213-1-310       2835.0000000        2857.5117188       -22.511718750    
 213-6-310       2829.0000000        2858.5900879       -29.590087891    
 213-27-11       2792.0000000        2868.2988281       -76.298828125    
 213-42-355      2739.0000000        2879.3579102       -140.35791016    
 216-7-291       2818.0000000        2859.8762207       -41.876220703    
 216-22-32       2787.0000000        2867.1853027       -80.185302734    
 216-27-11       2793.0000000        2868.9611816       -75.961181641    
 216-38-7        2738.0000000        2871.4511719       -133.45117188    
 216-42-355      2732.0000000        2880.7155762       -148.71557617    
 210-1-365       2843.0000000        2862.4558105       -19.455810547    
 210-38-7        2742.0000000        2876.3920898       -134.39208984    
 210-42-355      2745.0000000        2885.5417480       -140.54174805    
 210-48-335      2770.0000000        2893.4812012       -123.48120117    
 210-56-11       2775.0000000        2888.0263672       -113.02636719    
 189-17-6        2827.0000000        2885.2851562       -58.285156250    
 189-22-54       2812.0000000        2882.5598145       -70.559814453    
 189-27-11       2814.0000000        2884.6672363       -70.667236328    
 189-38-7        2772.0000000        2887.2802734       -115.28027344    
 189-42-355      2762.0000000        2896.0610352       -134.06103516    
 189-48-335      2793.0000000        2903.6057129       -110.60571289    
 189-56-9        2797.0000000        2898.6127930       -101.61279297    
 189-61-60       2779.0000000        2891.9506836       -112.95068359    
 189-66-48       2761.0000000        2889.3767090       -128.37670898    
 189-71-34       2738.0000000        2888.2929688       -150.29296875    
 200-38-7        2760.0000000        2877.8874512       -117.88745117    
 200-42-356      2747.0000000        2886.7827148       -139.78271484    
 200-48-335      2776.0000000        2894.6472168       -118.64721680    
 200-56-9        2778.0000000        2889.7145996       -111.71459961    
 200-61-60       2756.0000000        2882.5312500       -126.53125000    
 200-66-48       2745.0000000        2879.9772949       -134.97729492    
 201-38-7        2774.0000000        2884.2092285       -110.20922852    
 201-42-356      2759.0000000        2893.1103516       -134.11035156    
 201-48-335      2782.0000000        2899.8310547       -117.83105469    
 201-56-11       2786.0000000        2896.1416016       -110.14160156    
 201-61-60       2769.0000000        2888.3166504       -119.31665039    
 201-66-48       2753.0000000        2885.8103027       -132.81030273    
 201-71-34       2730.0000000        2884.3374023       -154.33740234    
 199-17-5        2814.0000000        2877.5937500       -63.593750000    
 199-22-54       2800.0000000        2876.5026855       -76.502685547    
 199-27-11       2801.0000000        2878.2250977       -77.225097656    
 199-38-7        2764.0000000        2887.4182129       -123.41821289    
 199-42-356      2749.0000000        2896.1860352       -147.18603516    
 199-48-335      2776.0000000        2902.4719238       -126.47192383    
 217-38-5        2864.0000000        2936.2509766       -72.250976562    
 217-42-348      2813.0000000        2937.6062012       -124.60620117    
 220-38-5        2851.0000000        2935.6596680       -84.659667969    
 220-42-348      2800.0000000        2941.4157715       -141.41577148    
 220-56-10       2804.0000000        2949.2946777       -145.29467773    
 220-61-61       2795.0000000        2934.0451660       -139.04516602    
 220-66-61       2776.0000000        2930.7490234       -154.74902344    
 204-38-5        2852.0000000        2944.7312012       -92.731201172    
 204-42-348      2799.0000000        2949.1035156       -150.10351562    
 202-38-5        2854.0000000        2935.6801758       -81.680175781    
 202-42-348      2802.0000000        2941.3237305       -139.32373047    
 198-39-190      2868.0000000        2938.4123535       -70.412353516    
 194-39-138      2833.0000000        2932.2414551       -99.241455078    
 190-56-10       2810.0000000        2943.8515625       -133.85156250    
 190-61-61       2802.0000000        2932.9628906       -130.96289062    
 192-38-5        2853.0000000        2955.1191406       -102.11914062    
 192-42-337      2813.0000000        2959.4943848       -146.49438477    
 191-39-212      2856.0000000        2959.8291016       -103.82910156    
 193-38-5        2848.0000000        2943.4042969       -95.404296875    
 193-42-348      2815.0000000        2948.4846191       -133.48461914    
 188-56-10       2883.0000000        2989.0283203       -106.02832031    
 188-61-61       2874.0000000        2978.0383301       -104.03833008    
 188-66-61       2864.0000000        2975.0295410       -111.02954102    
 187-56-10       2840.0000000        2973.2133789       -133.21337891    
 187-61-61       2840.0000000        2960.0644531       -120.06445312    
 187-66-62       2815.0000000        2956.7209473       -141.72094727    
 179-48-337      2866.0000000        2942.3666992       -76.366699219    
 14-1-365        2884.0000000        2902.6486816       -18.648681641    
 185-1-365       2853.0000000        2884.9736328       -31.973632812    
 185-10-60       2822.0000000        2886.4907227       -64.490722656    
 185-38-7        2754.0000000        2897.2871094       -143.28710938    
 185-42-355      2750.0000000        2905.3051758       -155.30517578    
 181-38-7        2780.0000000        2905.4052734       -125.40527344    
 181-48-335      2809.0000000        2918.6633301       -109.66333008    
 181-56-11       2813.0000000        2916.0656738       -103.06567383    
 181-61-60       2798.0000000        2909.6398926       -111.63989258    
 181-66-48       2777.0000000        2907.4145508       -130.41455078    
 181-71-34       2755.0000000        2906.4453125       -151.44531250    
 186-48-335      2805.0000000        2905.3796387       -100.37963867    
 183-48-335      2811.0000000        2911.0913086       -100.09130859    
 182-42-355      2777.0000000        2905.5324707       -128.53247070    
 182-48-335      2810.0000000        2912.2150879       -102.21508789    
 182-56-9        2809.0000000        2908.6083984       -99.608398438    
 182-61-60       2795.0000000        2902.1220703       -107.12207031    
 182-66-48       2776.0000000        2899.8940430       -123.89404297    
 182-71-34       2755.0000000        2898.9035645       -143.90356445    
 180-48-335      2822.0000000        2911.9267578       -89.926757812    
 184-12-80       2841.0000000        2879.3996582       -38.399658203    
 184-17-60       2837.0000000        2885.6586914       -48.658691406    
 184-22-62       2827.0000000        2884.6972656       -57.697265625    
 184-27-6        2812.0000000        2886.4006348       -74.400634766    
 184-31-335      2811.0000000        2886.0390625       -75.039062500    
 184-37-32       2792.0000000        2887.5605469       -95.560546875    
 184-42-299      2779.0000000        2896.7644043       -117.76440430    
 184-48-337      2809.0000000        2904.9504395       -95.950439453    
 184-56-12       2811.0000000        2900.0861816       -89.086181641    
 184-66-55       2790.0000000        2891.5651855       -101.56518555    
 305-56-11       2722.0000000        2807.0957031       -85.095703125    
 305-61-61       2678.0000000        2802.1953125       -124.19531250    
 305-66-32       2682.0000000        2799.3618164       -117.36181641    
 325-37-344      2646.0000000        2793.8015137       -147.80151367    
 325-43-14       2634.0000000        2799.3645020       -165.36450195    
 325-48-342      2649.0000000        2806.0097656       -157.00976562    
 325-56-12       2656.0000000        2802.1894531       -146.18945312    
 325-61-61       2621.0000000        2797.5563965       -176.55639648    
 325-66-31       2611.0000000        2794.8505859       -183.85058594    
 292-61-61       2675.0000000        2810.9045410       -135.90454102    
 296-26-321      2728.0000000        2804.2382812       -76.238281250    
 296-31-335      2715.0000000        2804.7590332       -89.759033203    
 296-37-344      2709.0000000        2804.7019043       -95.701904297    
 296-43-14       2705.0000000        2809.0197754       -104.01977539    
 296-48-342      2701.0000000        2814.0808105       -113.08081055    
 296-56-11       2697.0000000        2812.7583008       -115.75830078    
 296-60-321      2692.0000000        2810.4172363       -118.41723633    
 296-65-300      2686.0000000        2808.2287598       -122.22875977    
 297-17-4        2731.0000000        2800.3742676       -69.374267578    
 297-22-54       2722.0000000        2802.1562500       -80.156250000    
 297-27-11       2713.0000000        2802.9975586       -89.997558594    
 297-56-12       2681.0000000        2811.7900391       -130.79003906    
 297-61-61       2671.0000000        2807.7756348       -136.77563477    
 297-66-32       2665.0000000        2805.3745117       -140.37451172    
 272-33-177      2743.0000000        2816.4833984       -73.483398438    
 245-48-342      2722.0000000        2852.8549805       -130.85498047    
 245-56-12       2719.0000000        2848.4316406       -129.43164062    
 221-33-346      2759.0000000        2856.3125000       -97.312500000    
 222-48-343      2744.0000000        2875.1196289       -131.11962891    
 222-56-9        2758.0000000        2869.8176270       -111.81762695    
 222-61-60       2739.0000000        2863.8515625       -124.85156250    
 222-66-54       2735.0000000        2861.2441406       -126.24414062    
 222-71-34       2721.0000000        2859.8081055       -138.80810547    
 223-48-343      2746.0000000        2874.4377441       -128.43774414    
 223-56-9        2750.0000000        2869.1608887       -119.16088867    
 223-61-60       2738.0000000        2863.1997070       -125.19970703    
 223-71-35       2720.0000000        2859.1511230       -139.15112305    
 219-71-365      2723.0000000        2860.8093262       -137.80932617    
 102-43-8        2972.0000000        3002.8200684       -30.820068359    
 102-48-344      2995.0000000        3014.3525391       -19.352539062    
 92-71-40        2989.0000000        2999.7500000       -10.750000000    
 177-17-6        2858.0000000        2904.7597656       -46.759765625    
 177-38-7        2790.0000000        2905.5500488       -115.55004883    
 177-42-355      2803.0000000        2912.6049805       -109.60498047    
 177-48-335      2861.0000000        2919.0566406       -58.056640625    
 169-38-4        2773.0000000        2912.6972656       -139.69726562    
 169-42-334      2779.0000000        2919.0839844       -140.08398438    
 169-56-11       2818.0000000        2922.1455078       -104.14550781    
 168-1-365       2887.0000000        2901.1809082       -14.180908203    
 170-38-7        2782.0000000        2913.1784668       -131.17846680    
 170-42-355      2793.0000000        2919.0815430       -126.08154297    
 170-48-335      2831.0000000        2924.8681641       -93.868164062    
 170-56-9        2827.0000000        2922.4028320       -95.402832031    
 170-61-60       2821.0000000        2917.1230469       -96.123046875    
 170-66-48       2798.0000000        2915.0913086       -117.09130859    
 170-71-34       2780.0000000        2914.7731934       -134.77319336    
 176-1-280       2880.0000000        2901.0725098       -21.072509766    
 176-6-340       2875.0000000        2902.4855957       -27.485595703    
 176-11-333      2858.0000000        2902.0861816       -44.086181641    
 176-16-332      2862.0000000        2909.2873535       -47.287353516    
 176-38-7        2791.0000000        2911.9519043       -120.95190430    
 172-12-80       2883.0000000        2919.5771484       -36.577148438    
 172-17-60       2875.0000000        2922.3278809       -47.327880859    
 172-22-62       2868.0000000        2922.7800293       -54.780029297    
 172-27-6        2860.0000000        2923.9575195       -63.957519531    
 172-31-344      2859.0000000        2924.9072266       -65.907226562    
 172-36-335      2848.0000000        2933.0747070       -85.074707031    
 172-48-335      2848.0000000        2944.8303223       -96.830322266    
 172-56-11       2853.0000000        2944.9729004       -91.972900391    
 172-61-59       2852.0000000        2940.3193359       -88.319335938    
 171-43-47       2829.0000000        2940.7551270       -111.75512695    
 171-48-335      2851.0000000        2944.8303223       -93.830322266    
 171-56-11       2853.0000000        2944.9729004       -91.972900391    
 171-60-322      2853.0000000        2940.5117188       -87.511718750    
 171-65-298      2837.0000000        2939.1508789       -102.15087891    
 171-71-13       2807.0000000        2937.3811035       -130.38110352    
 164-33-152      2848.0000000        2934.9733887       -86.973388672    
 167-48-335      2864.0000000        2946.4196777       -82.419677734    
 167-56-11       2866.0000000        2946.3574219       -80.357421875    
 166-61-56       2871.0000000        2940.4553223       -69.455322266    
 166-66-53       2858.0000000        2938.9565430       -80.956542969    
 166-71-35       2829.0000000        2937.6882324       -108.68823242    
 178-48-336      2871.0000000        2959.4509277       -88.450927734    
 178-56-11       2816.0000000        2960.3264160       -144.32641602    
 174-48-336      2870.0000000        2956.1987305       -86.198730469    
 161-48-336      2887.0000000        2961.4802246       -74.480224609    
 161-56-11       2895.0000000        2961.9650879       -66.965087891    
 161-61-56       2887.0000000        2960.1801758       -73.180175781    
 161-66-54       2878.0000000        2958.4958496       -80.495849609    
 161-71-41       2860.0000000        2956.7260742       -96.726074219    
 153-48-335      2915.0000000        2959.7980957       -44.798095703    
 163-48-336      2902.0000000        2953.1918945       -51.191894531    
 163-56-11       2903.0000000        2953.0568848       -50.056884766    
 163-61-59       2896.0000000        2950.1071777       -54.107177734    
 163-66-54       2886.0000000        2948.5302734       -62.530273438    
 163-71-41       2865.0000000        2947.0278320       -82.027832031    
 156-48-336      2913.0000000        2956.0637207       -43.063720703    
 156-56-11       2916.0000000        2956.0754395       -40.075439453    
 157-1-358       2927.0000000        2925.0927734        1.9072265625    
 157-22-54       2887.0000000        2929.2209473       -42.220947266    
 157-27-11       2885.0000000        2931.0388184       -46.038818359    
 157-31-348      2874.0000000        2929.6723633       -55.672363281    
 157-37-22       2831.0000000        2931.0852051       -100.08520508    
 157-43-47       2842.0000000        2935.1328125       -93.132812500    
 157-48-335      2888.0000000        2939.3107910       -51.310791016    
 157-56-9        2903.0000000        2938.6613770       -35.661376953    
 157-60-322      2872.0000000        2934.9167480       -62.916748047    
 157-65-298      2859.0000000        2933.6035156       -74.603515625    
 157-71-365      2824.0000000        2932.7805176       -108.78051758    
 154-42-341      2833.0000000        2935.8210449       -102.82104492    
 159-38-4        2783.0000000        2927.8291016       -144.82910156    
 159-56-11       2840.0000000        2935.3955078       -95.395507812    
 147-38-4        2820.0000000        2942.8244629       -122.82446289    
 147-42-334      2820.0000000        2945.3625488       -125.36254883    
 147-56-11       2889.0000000        2949.3107910       -60.310791016    
 149-1-280       2945.0000000        2937.7404785        7.2595214844    
 150-48-335      2923.0000000        2954.2199707       -31.219970703    
 150-56-9        2926.0000000        2954.5351562       -28.535156250    
 137-48-335      2944.0000000        2961.8652344       -17.865234375    
 137-56-9        2949.0000000        2962.7702637       -13.770263672    
 137-61-56       2937.0000000        2960.1650391       -23.165039062    
 137-66-53       2922.0000000        2958.3125000       -36.312500000    
 136-38-4        2860.0000000        2959.5173340       -99.517333984    
 136-42-341      2880.0000000        2961.4213867       -81.421386719    
 136-56-11       2894.0000000        2967.2683105       -73.268310547    
 152-48-336      2949.0000000        2960.3156738       -11.315673828    
 129-17-5        2953.0000000        2968.7739258       -15.773925781    
 129-27-11       2944.0000000        2967.8857422       -23.885742188    
 123-42-348      2909.0000000        2975.4250488       -66.425048828    
 128-42-348      2921.0000000        2965.4067383       -44.406738281    
 128-56-11       2970.0000000        2970.5642090      -0.56420898438    
 133-12-362      2936.0000000        2948.4772949       -12.477294922    
 133-17-61       2933.0000000        2953.0456543       -20.045654297    
 133-27-6        2925.0000000        2952.9287109       -27.928710938    
 133-31-335      2913.0000000        2951.8259277       -38.825927734    
 133-38-4        2866.0000000        2951.9658203       -85.965820312    
 133-42-341      2885.0000000        2953.1528320       -68.152832031    
 133-48-335      2937.0000000        2956.5144043       -19.514404297    
 133-56-9        2956.0000000        2956.9992676      -0.99926757812    
 133-71-365      2871.0000000        2952.3339844       -81.333984375    
 127-1-365       2959.0000000        2960.1809082       -1.1809082031    
 127-17-1        2959.0000000        2964.7966309       -5.7966308594    
 130-42-341      2915.0000000        2965.4030762       -50.403076172    
 130-48-335      2949.0000000        2969.8229980       -20.822998047    
 130-56-9        2964.0000000        2970.9946289       -6.9946289062    
 126-27-11       2934.0000000        2965.1098633       -31.109863281    
 135-48-336      2897.0000000        2954.8532715       -57.853271484    
 135-56-9        2902.0000000        2954.6457520       -52.645751953    
 122-48-336      2920.0000000        2969.7785645       -49.778564453    
 120-12-310      2972.0000000        2983.8474121       -11.847412109    
 120-17-5        2968.0000000        2986.6557617       -18.655761719    
 120-27-6        2963.0000000        2986.4931641       -23.493164062    
 120-31-335      2964.0000000        2988.9421387       -24.942138672    
 120-37-32       2931.0000000        2984.8317871       -53.831787109    
 120-42-341      2947.0000000        2985.1855469       -38.185546875    
 120-48-336      2976.0000000        2992.0656738       -16.065673828    
 120-56-10       2983.0000000        2995.4548340       -12.454833984    
 120-61-59       2968.0000000        2991.5136719       -23.513671875    
 120-65-292      2963.0000000        2988.0598145       -25.059814453    
 120-71-365      2938.0000000        2985.6914062       -47.691406250    
 118-38-4        2903.0000000        2985.6948242       -82.694824219    
 118-42-341      2933.0000000        2987.5710449       -54.571044922    
 118-48-349      2960.0000000        2995.5986328       -35.598632812    
 118-56-10       2964.0000000        2999.2109375       -35.210937500    
 107-27-69       2989.0000000        2995.2136230       -6.2136230469    
 114-48-336      2957.0000000        2993.1213379       -36.121337891    
 114-56-10       2966.0000000        2995.7165527       -29.716552734    
 112-43-8        2956.0000000        2992.7438965       -36.743896484    
 112-48-335      2982.0000000        3001.4802246       -19.480224609    
 112-56-9        2988.0000000        3005.9807129       -17.980712891    
 112-61-52       2975.0000000        3000.8259277       -25.825927734    
 112-66-45       2967.0000000        2996.2224121       -29.222412109    
 112-71-13       2956.0000000        2993.3979492       -37.397949219    
 104-60-299      2981.0000000        3007.7270508       -26.727050781    
 104-65-292      2974.0000000        3002.5620117       -28.562011719    
 100-22-61       2977.0000000        2996.8745117       -19.874511719    
 101-61-53       2981.0000000        3009.4245605       -28.424560547    
 97-22-54        2975.0000000        3000.2790527       -25.279052734    
 97-27-10        2963.0000000        3002.8547363       -39.854736328    
 98-43-8         2975.0000000        2999.1665039       -24.166503906    
 98-48-348       3003.0000000        3011.6247559       -8.6247558594    
 98-56-10        3007.0000000        3017.3859863       -10.385986328    
 98-61-52        2997.0000000        3009.6386719       -12.638671875    
 98-66-45        2989.0000000        3003.1589355       -14.158935547    
 105-43-69       2982.0000000        2993.9697266       -11.969726562    
 105-48-348      2993.0000000        3001.0637207       -8.0637207031    
 105-56-10       3005.0000000        3004.3642578       0.63574218750    
 105-61-55       2989.0000000        3000.3291016       -11.329101562    
 105-66-45       2983.0000000        2996.1586914       -13.158691406    
 99-5-1          2994.0000000        2998.4211426       -4.4211425781    
 106-56-10       2952.0000000        2990.2292480       -38.229248047    
 106-61-59       2947.0000000        2988.2685547       -41.268554688    
 106-66-45       2941.0000000        2986.8820801       -45.882080078    
 106-71-40       2928.0000000        2986.1130371       -58.113037109    
 95-71-40        2970.0000000        3001.0837402       -31.083740234    
 3393-25-338     1492.0000000        1551.0887451       -59.088745117    
 3312-25-338     1558.0000000        1600.1013184       -42.101318359    
 3288-25-341     1610.0000000        1630.8410645       -20.841064453    
 3282-25-341     1611.0000000        1664.6313477       -53.631347656    
 3259-25-341     1649.0000000        1729.0339355       -80.033935547    
 3222-25-229     1675.0000000        1797.1379395       -122.13793945    
 3213-25-337     1690.0000000        1780.5621338       -90.562133789    
 3199-25-339     1687.0000000        1817.6885986       -130.68859863    
 3175-25-339     1683.0000000        1814.8850098       -131.88500977    
 3170-25-342     1701.0000000        1807.4820557       -106.48205566    
 3200-25-336     1748.0000000        1871.6434326       -123.64343262    
 3154-25-336     1687.0000000        1856.3395996       -169.33959961    
 3138-25-336     1690.0000000        1862.5275879       -172.52758789    
 3046-25-344     1693.0000000        1868.5769043       -175.57690430    
 3036-25-344     1702.0000000        1870.2154541       -168.21545410    
 3038-25-339     1713.0000000        1900.1405029       -187.14050293    
 2684-25-3       1753.0000000        1855.8813477       -102.88134766    
 2919-25-351     1795.0000000        1961.5844727       -166.58447266    
 2719-25-113     2216.0000000        2255.1933594       -39.193359375    
 1933-25-180     2246.0000000        2320.8935547       -74.893554688    
 1387-25-60      2343.0000000        2406.5402832       -63.540283203    
 1427-25-27      2341.0000000        2395.7639160       -54.763916016    
 1661-25-60      2359.0000000        2439.3894043       -80.389404297    
 1390-25-365     2362.0000000        2420.8950195       -58.895019531    
 1904-25-317     2511.0000000        2526.1762695       -15.176269531    
 1379-25-91      2552.0000000        2593.5063477       -41.506347656    
 1796-25-321     2637.0000000        2631.5180664        5.4819335938    
 1753-25-321     2623.0000000        2612.5661621        10.433837891    
 1705-25-328     2647.0000000        2655.5720215       -8.5720214844    
 1064-25-125     2385.0000000        2472.7802734       -87.780273438    
 831-25-335      2495.0000000        2534.8559570       -39.855957031    
 1066-25-335     2783.0000000        2827.2622070       -44.262207031    
 723-25-363      2420.0000000        1960.9018555        459.09814453    
 568-25-307      2578.0000000        2660.8586426       -82.858642578    
 544-25-309      2569.0000000        2668.1677246       -99.167724609    
 780-25-329      2673.0000000        2590.5954590        82.404541016    
 526-25-307      2566.0000000        2674.1569824       -108.15698242    
 370-25-308      2652.0000000        2750.6691895       -98.669189453    
 265-25-7        2718.0000000        2832.8488770       -114.84887695    
 266-25-43       2692.0000000        2841.8710938       -149.87109375    
 232-25-314      2758.0000000        2861.8220215       -103.82202148    
 100-25-316      2977.0000000        2997.7756348       -20.775634766    
 3205-26-8       1660.0000000        1772.5485840       -112.54858398    
 3174-26-7       1673.0000000        1803.8631592       -130.86315918    
 3163-26-13      1681.0000000        1819.4261475       -138.42614746    
 3100-26-12      1686.0000000        1808.2377930       -122.23779297    
 3097-26-7       1674.0000000        1824.3728027       -150.37280273    
 3096-26-12      1693.0000000        1832.5458984       -139.54589844    
 3053-26-11      1688.0000000        1827.8593750       -139.85937500    
 3065-26-12      1701.0000000        1814.2764893       -113.27648926    
 3033-26-11      1699.0000000        1825.0289307       -126.02893066    
 2989-26-12      1709.0000000        1837.3306885       -128.33068848    
 3083-26-152     1700.0000000        1884.7517090       -184.75170898    
 3040-26-13      1692.0000000        1859.7585449       -167.75854492    
 2997-26-123     2239.0000000        2292.7871094       -53.787109375    
 3016-26-123     2282.0000000        2355.3381348       -73.338134766    
 2953-26-14      1718.0000000        1851.7844238       -133.78442383    
 2963-26-14      1715.0000000        1844.4891357       -129.48913574    
 2968-26-13      1779.0000000        1837.0467529       -58.046752930    
 2906-26-13      1755.0000000        1844.6336670       -89.633666992    
 2905-26-13      1726.0000000        1856.7463379       -130.74633789    
 2874-26-14      1767.0000000        1853.1348877       -86.134887695    
 2780-26-13      1747.0000000        1851.8264160       -104.82641602    
 2779-26-13      1763.0000000        1853.0620117       -90.062011719    
 2787-26-14      1788.0000000        1860.2513428       -72.251342773    
 2790-26-14      1786.0000000        1861.5686035       -75.568603516    
 2772-26-13      1750.0000000        1851.2209473       -101.22094727    
 2639-26-13      1780.0000000        1859.6774902       -79.677490234    
 2974-26-15      1784.0000000        1946.5678711       -162.56787109    
 2937-26-14      1785.0000000        1941.4534912       -156.45349121    
 2885-26-14      1764.0000000        1898.5247803       -134.52478027    
 2867-26-14      1706.0000000        1884.5156250       -178.51562500    
 2837-26-14      1710.0000000        1873.8887939       -163.88879395    
 2748-26-15      1763.0000000        1870.4678955       -107.46789551    
 2694-26-15      1833.0000000        1869.3973389       -36.397338867    
 2933-26-15      1711.0000000        1863.2817383       -152.28173828    
 2851-26-14      1742.0000000        1865.5018311       -123.50183105    
 2711-26-15      1803.0000000        1867.1414795       -64.141479492    
 2928-26-18      1795.0000000        1988.3076172       -193.30761719    
 2811-26-14      1815.0000000        1940.9904785       -125.99047852    
 2808-26-18      1802.0000000        1934.9924316       -132.99243164    
 2766-26-47      2059.0000000        2176.2465820       -117.24658203    
 2789-26-18      1813.0000000        1933.8406982       -120.84069824    
 2696-26-18      2033.0000000        2166.3410645       -133.34106445    
 2977-26-123     2364.0000000        2396.4692383       -32.469238281    
 2914-26-120     2139.0000000        2203.5270996       -64.527099609    
 2930-26-123     2338.0000000        2377.5058594       -39.505859375    
 2898-26-120     2134.0000000        2199.1362305       -65.136230469    
 2841-26-120     2191.0000000        2273.5842285       -82.584228516    
 2774-26-120     2200.0000000        2256.5354004       -56.535400391    
 2762-26-26      2162.0000000        2243.3632812       -81.363281250    
 2733-26-1       2092.0000000        2206.8110352       -114.81103516    
 2742-26-26      2135.0000000        2223.5886230       -88.588623047    
 2670-26-18      2129.0000000        2224.8835449       -95.883544922    
 2660-26-120     2188.0000000        2249.5268555       -61.526855469    
 2931-26-22      2410.0000000        2466.5610352       -56.561035156    
 2595-26-12      1779.0000000        1861.9382324       -82.938232422    
 2596-26-1       1776.0000000        1861.4815674       -85.481567383    
 2589-26-11      1776.0000000        1861.5681152       -85.568115234    
 2588-26-1       1774.0000000        1861.2767334       -87.276733398    
 2564-26-12      1779.0000000        1862.3494873       -83.349487305    
 2529-26-12      1789.0000000        1865.0476074       -76.047607422    
 2449-26-11      1828.0000000        1871.2697754       -43.269775391    
 2492-26-13      1813.0000000        1867.6905518       -54.690551758    
 2452-26-12      1795.0000000        1867.1331787       -72.133178711    
 2303-26-1       1795.0000000        1866.0592041       -71.059204102    
 2296-26-12      1805.0000000        1869.8293457       -64.829345703    
 2301-26-14      1821.0000000        1872.3405762       -51.340576172    
 2300-26-11      1839.0000000        1875.3193359       -36.319335938    
 2220-26-11      1844.0000000        1876.0299072       -32.029907227    
 2089-26-1       1825.0000000        1873.4254150       -48.425415039    
 2088-26-12      1831.0000000        1874.6391602       -43.639160156    
 2448-26-11      1837.0000000        1871.6219482       -34.621948242    
 2099-26-1       1851.0000000        1877.7135010       -26.713500977    
 1922-26-1       1870.0000000        1879.3507080       -9.3507080078    
 1983-26-11      1883.0000000        1879.8671875        3.1328125000    
 1930-26-14      1888.0000000        1883.9406738        4.0593261719    
 2649-26-27      2098.0000000        2195.9323730       -97.932373047    
 2505-26-32      2152.0000000        2239.2658691       -87.265869141    
 2464-26-29      2151.0000000        2242.5505371       -91.550537109    
 2388-26-32      2173.0000000        2265.1777344       -92.177734375    
 2412-26-20      2232.0000000        2306.8750000       -74.875000000    
 2289-26-29      2181.0000000        2271.2016602       -90.201660156    
 2236-26-19      2195.0000000        2276.4343262       -81.434326172    
 2183-26-29      2163.0000000        2271.3854980       -108.38549805    
 2215-26-104     2435.0000000        2448.5476074       -13.547607422    
 2162-26-102     2323.0000000        2383.7045898       -60.704589844    
 2130-26-69      2258.0000000        2326.5554199       -68.555419922    
 1990-26-67      2274.0000000        2340.8562012       -66.856201172    
 2103-26-67      2293.0000000        2351.3850098       -58.385009766    
 2055-26-102     2292.0000000        2358.7189941       -66.718994141    
 1997-26-183     2331.0000000        2403.6081543       -72.608154297    
 2339-26-104     2473.0000000        2505.9311523       -32.931152344    
 2100-26-117     2518.0000000        2531.8410645       -13.841064453    
 2010-26-75      2379.0000000        2448.9108887       -69.910888672    
 1428-26-1       1959.0000000        1892.0207520        66.979248047    
 1383-26-8       2004.0000000        1894.6618652        109.33813477    
 1819-26-1       1912.0000000        1882.9329834        29.067016602    
 1748-26-11      1915.0000000        1883.8381348        31.161865234    
 1702-26-11      1892.0000000        1881.9283447        10.071655273    
 1710-26-1       1884.0000000        1882.4798584        1.5201416016    
 1663-26-1       1894.0000000        1883.0191650        10.980834961    
 1612-26-11      1921.0000000        1886.8260498        34.173950195    
 1407-26-11      1992.0000000        1894.8375244        97.162475586    
 1364-26-11      1996.0000000        1896.0712891        99.928710938    
 1266-26-8       2015.0000000        1899.2467041        115.75329590    
 1336-26-11      2008.0000000        1897.5126953        110.48730469    
 1337-26-11      2002.0000000        1897.0375977        104.96240234    
 1264-26-1       2006.0000000        1899.2304688        106.76953125    
 1849-26-40      2254.0000000        2341.5942383       -87.594238281    
 1832-26-40      2225.0000000        2312.5346680       -87.534667969    
 1690-26-33      2246.0000000        2331.4948730       -85.494873047    
 1691-26-1       2240.0000000        2326.0429688       -86.042968750    
 1417-26-60      2352.0000000        2401.4770508       -49.477050781    
 1386-26-34      2348.0000000        2408.3710938       -60.371093750    
 1329-26-35      2350.0000000        2429.7138672       -79.713867188    
 1278-26-33      2365.0000000        2433.8466797       -68.846679688    
 1879-26-69      2338.0000000        2413.7795410       -75.779541016    
 1811-26-68      2332.0000000        2403.1345215       -71.134521484    
 1837-26-60      2337.0000000        2412.5307617       -75.530761719    
 1907-26-68      2328.0000000        2396.5402832       -68.540283203    
 1888-26-68      2311.0000000        2379.1206055       -68.120605469    
 1779-26-67      2313.0000000        2380.3906250       -67.390625000    
 1619-26-67      2340.0000000        2379.9738770       -39.973876953    
 1723-26-60      2306.0000000        2381.0961914       -75.096191406    
 1694-26-68      2322.0000000        2403.3913574       -81.391357422    
 1658-26-67      2325.0000000        2395.3837891       -70.383789062    
 1655-26-69      2339.0000000        2418.9716797       -79.971679688    
 1614-26-69      2341.0000000        2419.1699219       -78.169921875    
 1596-26-69      2343.0000000        2426.4599609       -83.459960938    
 1630-26-69      2351.0000000        2434.9343262       -83.934326172    
 1552-26-74      2343.0000000        2419.3095703       -76.309570312    
 1467-26-76      2341.0000000        2394.3442383       -53.344238281    
 1470-26-74      2328.0000000        2408.8579102       -80.857910156    
 1455-26-81      2338.0000000        2412.6901855       -74.690185547    
 1443-26-81      2342.0000000        2413.5473633       -71.547363281    
 1465-26-74      2337.0000000        2415.7734375       -78.773437500    
 1440-26-74      2343.0000000        2422.3308105       -79.330810547    
 1474-26-75      2350.0000000        2436.9858398       -86.985839844    
 1453-26-71      2351.0000000        2431.6994629       -80.699462891    
 1488-26-70      2350.0000000        2460.4594727       -110.45947266    
 1502-26-71      2352.0000000        2456.2739258       -104.27392578    
 1477-26-60      2354.0000000        2455.9482422       -101.94824219    
 1458-26-153     2351.0000000        2461.8496094       -110.84960938    
 1429-26-71      2371.0000000        2467.3012695       -96.301269531    
 1397-26-71      2361.0000000        2440.5827637       -79.582763672    
 1416-26-76      2364.0000000        2403.9675293       -39.967529297    
 1312-26-88      2410.0000000        2444.9306641       -34.930664062    
 1359-26-82      2387.0000000        2477.0930176       -90.093017578    
 1333-26-82      2391.0000000        2481.3540039       -90.354003906    
 1295-26-84      2407.0000000        2491.9990234       -84.999023438    
 1892-26-193     2511.0000000        2541.0905762       -30.090576172    
 1940-26-109     2485.0000000        2501.6308594       -16.630859375    
 1659-26-71      2364.0000000        2462.1428223       -98.142822266    
 1671-26-60      2365.0000000        2455.4553223       -90.455322266    
 1627-26-70      2374.0000000        2461.6848145       -87.684814453    
 1677-26-83      2490.0000000        2508.1838379       -18.183837891    
 1602-26-83      2397.0000000        2501.1398926       -104.13989258    
 1604-26-83      2484.0000000        2509.4311523       -25.431152344    
 1669-26-109     2529.0000000        2559.0759277       -30.075927734    
 1622-26-109     2528.0000000        2557.8842773       -29.884277344    
 1553-26-88      2529.0000000        2539.6340332       -10.634033203    
 1563-26-88      2526.0000000        2530.0512695       -4.0512695312    
 1586-26-84      2483.0000000        2513.9680176       -30.968017578    
 1507-26-75      2376.0000000        2480.4641113       -104.46411133    
 1495-26-60      2377.0000000        2482.8049316       -105.80493164    
 1484-26-75      2370.0000000        2480.9609375       -110.96093750    
 1489-26-88      2488.0000000        2520.3981934       -32.398193359    
 1464-26-88      2529.0000000        2529.6157227      -0.61572265625    
 1414-26-95      2547.0000000        2597.5690918       -50.569091797    
 1395-26-88      2457.0000000        2510.1740723       -53.174072266    
 1377-26-83      2461.0000000        2512.0251465       -51.025146484    
 1375-26-88      2509.0000000        2529.1240234       -20.124023438    
 1396-26-70      2427.0000000        2494.8266602       -67.826660156    
 1415-26-84      2403.0000000        2483.9592285       -80.959228516    
 1300-26-213     2560.0000000        2590.4482422       -30.448242188    
 1276-26-95      2557.0000000        2620.1184082       -63.118408203    
 1354-26-95      2713.0000000        2695.7568359        17.243164062    
 1358-26-95      2714.0000000        2686.4597168        27.540283203    
 846-26-13       2358.0000000        2008.5166016        349.48339844    
 833-26-13       2354.0000000        1963.0358887        390.96411133    
 827-26-13       2353.0000000        1958.1165771        394.88342285    
 845-26-13       2306.0000000        1944.5373535        361.46264648    
 1105-26-118     2038.0000000        1906.3066406        131.69335938    
 1120-26-13      2034.0000000        1905.8806152        128.11938477    
 1088-26-91      2090.0000000        1907.1374512        182.86254883    
 809-26-13       2198.0000000        1928.8592529        269.14074707    
 1235-26-36      2364.0000000        2437.6440430       -73.644042969    
 1239-26-33      2364.0000000        2436.9589844       -72.958984375    
 1227-26-33      2367.0000000        2441.8676758       -74.867675781    
 1219-26-36      2358.0000000        2442.1511230       -84.151123047    
 1168-26-35      2377.0000000        2450.5771484       -73.577148438    
 1140-26-35      2383.0000000        2456.7321777       -73.732177734    
 1160-26-36      2371.0000000        2455.3054199       -84.305419922    
 1121-26-36      2378.0000000        2463.5910645       -85.591064453    
 1080-26-36      2443.0000000        2478.3037109       -35.303710938    
 1048-26-36      2445.0000000        2481.3647461       -36.364746094    
 1075-26-36      2428.0000000        2473.4626465       -45.462646484    
 1016-26-36      2387.0000000        2481.1406250       -94.140625000    
 1011-26-36      2378.0000000        2482.8354492       -104.83544922    
 1083-26-35      2391.0000000        2467.3798828       -76.379882812    
 997-26-244      2404.0000000        2482.2451172       -78.245117188    
 910-26-166      2463.0000000        2503.3298340       -40.329833984    
 1212-26-64      2374.0000000        2496.5061035       -122.50610352    
 1131-26-349     2441.0000000        2473.6147461       -32.614746094    
 1188-26-60      2481.0000000        2492.2539062       -11.253906250    
 1076-26-341     2520.0000000        2531.9458008       -11.945800781    
 1000-26-18      2522.0000000        2539.7963867       -17.796386719    
 1095-26-18      2462.0000000        2496.7868652       -34.786865234    
 1035-26-61      2488.0000000        2506.2358398       -18.235839844    
 1037-26-60      2477.0000000        2494.3994141       -17.399414062    
 878-26-60       2496.0000000        2528.9980469       -32.998046875    
 1250-26-84      2437.0000000        2506.1711426       -69.171142578    
 1251-26-84      2433.0000000        2505.2038574       -72.203857422    
 1195-26-81      2500.0000000        2526.6896973       -26.689697266    
 1110-26-62      2530.0000000        2549.3947754       -19.394775391    
 1044-26-82      2565.0000000        2605.1806641       -40.180664062    
 1017-26-62      2545.0000000        2587.1726074       -42.172607422    
 973-26-95       2601.0000000        2655.2197266       -54.219726562    
 870-26-95       2615.0000000        2677.3264160       -62.326416016    
 3417-26-95      2627.0000000        2676.6679688       -49.667968750    
 1246-26-305     2722.0000000        2750.5700684       -28.570068359    
 1593-26-18      2766.0000000        2810.6760254       -44.676025391    
 757-26-141      2333.0000000        1964.3779297        368.62207031    
 758-26-1        2395.0000000        1968.8013916        426.19860840    
 722-26-64       2443.0000000        1970.0587158        472.94128418    
 737-26-1        2415.0000000        1970.5736084        444.42639160    
 656-26-1        2498.0000000        1980.5859375        517.41406250    
 602-26-1        2502.0000000        1969.7655029        532.23449707    
 598-26-1        2492.0000000        1963.9066162        528.09338379    
 720-26-1        2222.0000000        1939.9466553        282.05334473    
 674-26-43       2549.0000000        2626.5471191       -77.547119141    
 673-26-49       2545.0000000        2634.1811523       -89.181152344    
 810-26-43       2512.0000000        2554.4570312       -42.457031250    
 785-26-65       2582.0000000        2633.1494141       -51.149414062    
 681-26-96       2620.0000000        2658.0844727       -38.084472656    
 608-26-64       2631.0000000        2679.9047852       -48.904785156    
 559-26-60       2643.0000000        2705.0844727       -62.084472656    
 731-26-98       2678.0000000        2741.4741211       -63.474121094    
 683-26-91       2679.0000000        2737.0764160       -58.076416016    
 496-26-56       2578.0000000        2693.7587891       -115.75878906    
 408-26-46       2653.0000000        2770.5729980       -117.57299805    
 391-26-72       2685.0000000        2763.3532715       -78.353271484    
 451-26-85       2697.0000000        2764.7116699       -67.711669922    
 477-26-63       2661.0000000        2688.9606934       -27.960693359    
 302-26-47       2680.0000000        2822.1052246       -142.10522461    
 295-26-47       2724.0000000        2828.7314453       -104.73144531    
 281-26-47       2687.0000000        2834.7802734       -147.78027344    
 270-26-41       2694.0000000        2839.9599609       -145.95996094    
 278-26-11       2716.0000000        2828.7106934       -112.71069336    
 250-26-11       2727.0000000        2840.8305664       -113.83056641    
 3333-27-99      1707.0000000        1779.4792480       -72.479248047    
 3176-27-347     1652.0000000        1794.3267822       -142.32678223    
 3055-27-126     2453.0000000        2524.0559082       -71.055908203    
 2747-27-253     2052.0000000        2187.1567383       -135.15673828    
 995-27-236      2110.0000000        1910.6253662        199.37463379    
 778-27-348      2610.0000000        2620.3828125       -10.382812500    
 718-27-151      2631.0000000        2671.1547852       -40.154785156    
 3239-30-335     2915.0000000        2888.1132812        26.886718750    
 3181-30-185     2850.0000000        2847.7128906        2.2871093750    
 3211-30-274     2885.0000000        2918.6530762       -33.653076172    
 3189-30-181     2873.0000000        2864.8686523        8.1313476562    
 3198-30-274     2910.0000000        2895.7619629        14.238037109    
 3192-30-274     2905.0000000        2894.5192871        10.480712891    
 3124-30-213     2790.0000000        2811.9599609       -21.959960938    
 2832-30-108     2015.0000000        2152.5769043       -137.57690430    
 2673-30-244     2073.0000000        2207.5944824       -134.59448242    
 2876-30-99      2185.0000000        2270.5964355       -85.596435547    
 2774-30-91      2193.0000000        2259.5585938       -66.558593750    
 2733-30-27      2093.0000000        2212.4770508       -119.47705078    
 2603-30-29      2118.0000000        2213.9833984       -95.983398438    
 2652-30-27      2115.0000000        2220.3493652       -105.34936523    
 2576-30-30      2130.0000000        2236.9311523       -106.93115234    
 2542-30-30      2154.0000000        2246.3488770       -92.348876953    
 2505-30-29      2150.0000000        2242.2409668       -92.240966797    
 2355-30-1       2157.0000000        2250.8657227       -93.865722656    
 2464-30-29      2154.0000000        2245.2375488       -91.237548828    
 2357-30-30      2173.0000000        2260.7238770       -87.723876953    
 2373-30-30      2161.0000000        2261.3334961       -100.33349609    
 2446-30-30      2180.0000000        2269.5549316       -89.554931641    
 2445-30-121     2188.0000000        2283.2077637       -95.207763672    
 2237-30-34      2202.0000000        2295.8056641       -93.805664062    
 2137-30-35      2201.0000000        2288.0800781       -87.080078125    
 2109-30-30      2196.0000000        2280.7216797       -84.721679688    
 2038-30-1       2202.0000000        2296.5498047       -94.549804688    
 2059-30-35      2212.0000000        2302.1252441       -90.125244141    
 2227-30-273     2279.0000000        2343.9816895       -64.981689453    
 2056-30-18      2281.0000000        2345.0527344       -64.052734375    
 2019-30-111     2276.0000000        2349.2717285       -73.271728516    
 1998-30-244     2298.0000000        2392.0102539       -94.010253906    
 2086-30-14      2348.0000000        2410.6352539       -62.635253906    
 2069-30-244     2359.0000000        2426.3242188       -67.324218750    
 2081-30-105     2369.0000000        2420.7087402       -51.708740234    
 2246-30-335     2440.0000000        2510.2749023       -70.274902344    
 2001-30-305     2546.0000000        2544.8833008        1.1166992188    
 1617-30-121     2310.0000000        2353.1455078       -43.145507812    
 1391-30-43      2344.0000000        2411.6499023       -67.649902344    
 1427-30-11      2340.0000000        2399.6372070       -59.637207031    
 1400-30-42      2345.0000000        2405.6281738       -60.628173828    
 1619-30-57      2328.0000000        2381.9599609       -53.959960938    
 1693-30-51      2339.0000000        2433.2734375       -94.273437500    
 1500-30-56      2304.0000000        2401.2043457       -97.204345703    
 1312-30-349     2406.0000000        2446.6166992       -40.616699219    
 1874-30-1       2575.0000000        2581.7551270       -6.7551269531    
 1857-30-157     2523.0000000        2535.5952148       -12.595214844    
 1843-30-213     2506.0000000        2524.9182129       -18.918212891    
 1846-30-43      2486.0000000        2491.9023438       -5.9023437500    
 1676-30-79      2516.0000000        2527.2990723       -11.299072266    
 1574-30-246     2530.0000000        2557.1447754       -27.144775391    
 1368-30-60      2431.0000000        2502.0766602       -71.076660156    
 1366-30-43      2461.0000000        2515.4506836       -54.450683594    
 1348-30-43      2520.0000000        2540.9038086       -20.903808594    
 1320-30-335     2645.0000000        2607.7138672        37.286132812    
 1276-30-121     2559.0000000        2623.9526367       -64.952636719    
 1751-30-305     2638.0000000        2643.2080078       -5.2080078125    
 1752-30-305     2582.0000000        2594.3876953       -12.387695312    
 1749-30-305     2565.0000000        2587.4836426       -22.483642578    
 1754-30-130     2612.0000000        2604.4458008        7.5541992188    
 812-30-6        2350.0000000        1973.8148193        376.18518066    
 1235-30-43      2363.0000000        2440.1977539       -77.197753906    
 1197-30-43      2463.0000000        2480.3181152       -17.318115234    
 1187-30-182     2476.0000000        2497.8842773       -21.884277344    
 1194-30-1       2495.0000000        2522.0861816       -27.086181641    
 529-30-351      2510.0000000        2671.5903320       -161.59033203    
 686-30-127      2532.0000000        2616.0676270       -84.067626953    
 488-30-44       2517.0000000        2696.5073242       -179.50732422    
 485-30-351      2554.0000000        2702.3645020       -148.36450195    
 476-30-60       2570.0000000        2703.0358887       -133.03588867    
 408-30-349      2630.0000000        2772.1762695       -142.17626953    
 402-30-213      2615.0000000        2761.3496094       -146.34960938    
 366-30-42       2663.0000000        2749.1081543       -86.108154297    
 301-30-342      2660.0000000        2820.6264648       -160.62646484    
 270-30-342      2667.0000000        2841.0566406       -174.05664062    
 3376-31-2       1547.0000000        1603.1230469       -56.123046875    
 3351-31-101     1629.0000000        1694.7878418       -65.787841797    
 3272-31-104     2957.0000000        2923.8688965        33.131103516    
 3145-31-193     1750.0000000        1825.4398193       -75.439819336    
 3161-31-244     1725.0000000        1843.6098633       -118.60986328    
 3038-31-1       1696.0000000        1907.8577881       -211.85778809    
 3243-31-1       2895.0000000        2890.4309082        4.5690917969    
 3256-31-104     2929.0000000        2890.3391113        38.660888672    
 3208-31-273     2890.0000000        2857.4838867        32.516113281    
 3153-31-348     2821.0000000        2819.5439453        1.4560546875    
 3164-31-283     2845.0000000        2845.4658203      -0.46582031250    
 3093-31-104     2691.0000000        2744.9809570       -53.980957031    
 2787-31-57      1715.0000000        1867.9327393       -152.93273926    
 2734-31-1       1719.0000000        1860.2377930       -141.23779297    
 2823-31-196     1708.0000000        1880.6853027       -172.68530273    
 2927-31-29      1953.0000000        2069.1503906       -116.15039062    
 2743-31-220     2083.0000000        2198.9912109       -115.99121094    
 2756-31-252     2034.0000000        2185.2480469       -151.24804688    
 2699-31-1       2064.0000000        2200.0695801       -136.06958008    
 2687-31-266     2081.0000000        2198.9692383       -117.96923828    
 2615-31-1       1813.0000000        1871.6065674       -58.606567383    
 2650-31-60      2101.0000000        2197.1904297       -96.190429688    
 2558-31-121     2120.0000000        2218.3728027       -98.372802734    
 2475-31-120     2142.0000000        2251.4685059       -109.46850586    
 2460-31-120     2159.0000000        2254.7949219       -95.794921875    
 2427-31-120     2172.0000000        2272.2224121       -100.22241211    
 2326-31-121     2234.0000000        2308.7988281       -74.798828125    
 2212-31-121     2209.0000000        2296.9284668       -87.928466797    
 1991-31-36      2203.0000000        2293.8862305       -90.886230469    
 1958-31-36      2205.0000000        2299.4980469       -94.498046875    
 2057-31-121     2211.0000000        2308.3823242       -97.382324219    
 1951-31-36      2239.0000000        2334.0893555       -95.089355469    
 2014-31-121     2308.0000000        2369.7248535       -61.724853516    
 1974-31-120     2295.0000000        2372.8115234       -77.811523438    
 2102-31-119     2325.0000000        2403.5415039       -78.541503906    
 2054-31-91      2321.0000000        2403.9069824       -82.906982422    
 2339-31-78      2474.0000000        2509.9084473       -35.908447266    
 2330-31-196     2520.0000000        2568.8217773       -48.821777344    
 2100-31-78      2521.0000000        2533.3405762       -12.340576172    
 2043-31-211     2485.0000000        2496.6752930       -11.675292969    
 1849-31-1       2249.0000000        2342.5915527       -93.591552734    
 1471-31-113     2330.0000000        2381.4760742       -51.476074219    
 1461-31-40      2308.0000000        2393.1350098       -85.135009766    
 1321-31-40      2335.0000000        2424.9636230       -89.963623047    
 1306-31-113     2337.0000000        2426.6901855       -89.690185547    
 1307-31-113     2342.0000000        2426.8273926       -84.827392578    
 1305-31-121     2345.0000000        2428.4401855       -83.440185547    
 1886-31-119     2327.0000000        2421.5954590       -94.595458984    
 1879-31-119     2322.0000000        2414.9111328       -92.911132812    
 1779-31-119     2295.0000000        2381.8547363       -86.854736328    
 1724-31-118     2294.0000000        2379.6428223       -85.642822266    
 1694-31-119     2307.0000000        2404.7580566       -97.758056641    
 1695-31-120     2314.0000000        2400.4157715       -86.415771484    
 1596-31-119     2320.0000000        2427.8303223       -107.83032227    
 1683-31-68      2347.0000000        2447.4194336       -100.41943359    
 1552-31-117     2327.0000000        2420.8129883       -93.812988281    
 1533-31-118     2316.0000000        2407.0805664       -91.080566406    
 1813-31-117     2308.0000000        2401.8889160       -93.888916016    
 1538-31-117     2310.0000000        2398.8627930       -88.862792969    
 1470-31-117     2313.0000000        2410.7465820       -97.746582031    
 1453-31-117     2336.0000000        2433.2241211       -97.224121094    
 1502-31-120     2339.0000000        2457.7448730       -118.74487305    
 1416-31-62      2338.0000000        2406.1220703       -68.122070312    
 1784-31-148     2366.0000000        2457.6052246       -91.605224609    
 1659-31-114     2355.0000000        2463.4438477       -108.44384766    
 1671-31-114     2350.0000000        2456.7722168       -106.77221680    
 1602-31-114     2371.0000000        2502.7976074       -131.79760742    
 1507-31-114     2358.0000000        2481.8032227       -123.80322266    
 1514-31-114     2349.0000000        2474.9379883       -125.93798828    
 1495-31-69      2358.0000000        2484.1401367       -126.14013672    
 1484-31-114     2348.0000000        2482.3215332       -134.32153320    
 1483-31-114     2436.0000000        2512.1667480       -76.166748047    
 1239-31-113     2352.0000000        2436.5808105       -84.580810547    
 1234-31-113     2349.0000000        2435.2062988       -86.206298828    
 1099-31-117     2361.0000000        2479.6411133       -118.64111328    
 853-31-118      2482.0000000        2535.6936035       -53.693603516    
 720-31-1        2221.0000000        1940.3560791        280.64392090    
 729-31-118      2508.0000000        2595.0915527       -87.091552734    
 679-31-118      2516.0000000        2626.1706543       -110.17065430    
 810-31-118      2479.0000000        2553.6647949       -74.664794922    
 299-31-59       2671.0000000        2812.5866699       -141.58666992    
 3281-32-351     1586.0000000        1692.3110352       -106.31103516    
 3347-32-97      2965.0000000        2959.4992676        5.5007324219    
 3051-32-152     1691.0000000        1825.6519775       -134.65197754    
 3004-32-94      2011.0000000        2118.1779785       -107.17797852    
 2997-32-94      2234.0000000        2297.5727539       -63.572753906    
 3016-32-94      2280.0000000        2360.9577637       -80.957763672    
 3055-32-94      2452.0000000        2530.2231445       -78.223144531    
 2880-32-95      2083.0000000        2179.7192383       -96.719238281    
 2883-32-196     2011.0000000        2155.0319824       -144.03198242    
 2977-32-96      2361.0000000        2403.2702637       -42.270263672    
 2914-32-96      2130.0000000        2209.9936523       -79.993652344    
 2930-32-96      2337.0000000        2381.8828125       -44.882812500    
 2869-32-96      2320.0000000        2376.2551270       -56.255126953    
 2898-32-96      2125.0000000        2205.8547363       -80.854736328    
 2841-32-96      2182.0000000        2276.8112793       -94.811279297    
 2742-32-95      2130.0000000        2228.1179199       -98.117919922    
 2956-32-95      2527.0000000        2543.8051758       -16.805175781    
 2441-32-216     1804.0000000        1877.5052490       -73.505249023    
 2477-32-137     1798.0000000        1879.2045898       -81.204589844    
 2334-32-335     2382.0000000        2423.1606445       -41.160644531    
 2314-32-342     2365.0000000        2399.0844727       -34.084472656    
 2331-32-29      2480.0000000        2544.1259766       -64.125976562    
 2128-32-154     2478.0000000        2455.9658203        22.034179688    
 2092-32-154     2468.0000000        2457.9399414        10.060058594    
 2085-32-154     2448.0000000        2484.1352539       -36.135253906    
 1278-32-50      2361.0000000        2434.2983398       -73.298339844    
 1791-32-119     2331.0000000        2430.4064941       -99.406494141    
 1131-32-62      2436.0000000        2473.9060059       -37.906005859    
 1035-32-71      2477.0000000        2506.8291016       -29.829101562    
 2799-35-122     1998.0000000        2172.8776855       -174.87768555    
 861-35-329      2230.0000000        1923.9331055        306.06689453    
 3038-36-52      1680.0000000        1917.4920654       -237.49206543    
 2937-36-86      1764.0000000        1959.9262695       -195.92626953    
 1428-36-91      1955.0000000        1899.1724854        55.827514648    
 1106-36-164     2031.0000000        1911.4565430        119.54345703    
 727-36-333      2585.0000000        2640.8310547       -55.831054688    
 492-36-108      2478.0000000        2689.4770508       -211.47705078    
 380-36-78       2594.0000000        2748.9291992       -154.92919922    
 3318-37-364     1613.0000000        1737.5449219       -124.54492188    
 2476-37-182     2165.0000000        2280.6215820       -115.62158203    
 2437-37-1       2175.0000000        2286.6867676       -111.68676758    
 1436-37-201     2321.0000000        2448.0512695       -127.05126953    
 974-37-342      2328.0000000        2488.1977539       -160.19775391    
 981-37-84       2562.0000000        2622.3544922       -60.354492188    
 814-37-58       2570.0000000        2631.5441895       -61.544189453    
 697-37-41       2615.0000000        2683.2995605       -68.299560547    
 659-37-16       2662.0000000        2656.6232910        5.3767089844    

 HEAD/DRAWDOWN SUM OF SQUARED DIFFERENCE:    1.65784E+08

 Run end date and time (yyyy/mm/dd hh:mm:ss): 2017/11/09 12:59:09
 Elapsed run time: 38.708 Seconds

