                                  MODFLOW-2005     
      U.S. GEOLOGICAL SURVEY MODULAR FINITE-DIFFERENCE GROUND-WATER FLOW MODEL
                            VERSION 1.11.00 8/8/2013

 LIST FILE: mf.list
                         UNIT    2

 OPENING mf.dis
 FILE TYPE:DIS   UNIT   11   STATUS:OLD    
 FORMAT:FORMATTED              ACCESS:SEQUENTIAL          

 OPENING mf.bas
 FILE TYPE:BAS6   UNIT   13   STATUS:OLD    
 FORMAT:FORMATTED              ACCESS:SEQUENTIAL          

 OPENING mf.lpf
 FILE TYPE:LPF   UNIT   15   STATUS:OLD    
 FORMAT:FORMATTED              ACCESS:SEQUENTIAL          

 OPENING mf.oc
 FILE TYPE:OC   UNIT   14   STATUS:OLD    
 FORMAT:FORMATTED              ACCESS:SEQUENTIAL          

 OPENING mf.pcg
 FILE TYPE:PCG   UNIT   27   STATUS:OLD    
 FORMAT:FORMATTED              ACCESS:SEQUENTIAL          

 OPENING mf.lmt6
 FILE TYPE:LMT6   UNIT   30   STATUS:OLD    
 FORMAT:FORMATTED              ACCESS:SEQUENTIAL          

 OPENING mf.chd
 FILE TYPE:CHD   UNIT   24   STATUS:OLD    
 FORMAT:FORMATTED              ACCESS:SEQUENTIAL          

 OPENING mf.wel
 FILE TYPE:WEL   UNIT   20   STATUS:OLD    
 FORMAT:FORMATTED              ACCESS:SEQUENTIAL          

 OPENING mf.hds
 FILE TYPE:DATA(BINARY)   UNIT   51   STATUS:REPLACE
 FORMAT:BINARY                 ACCESS:SEQUENTIAL          

 BAS -- BASIC PACKAGE, VERSION 7, 5/2/2005 INPUT READ FROM UNIT   13
 
 MODFLOW was compiled using mixed precision
 Precision of REAL variables:           6
 Precision of DOUBLE PRECISION variables:          15

 DISCRETIZATION INPUT DATA READ FROM UNIT   11
 # DIS package for  MODFLOW-2005, generated by Flopy.
    1 LAYERS       180 ROWS       180 COLUMNS
   20 STRESS PERIOD(S) IN SIMULATION
 MODEL TIME UNIT IS DAYS
 MODEL LENGTH UNIT IS METERS
  Confining bed flag for each layer:
   0



                               DELR
 READING ON UNIT   11 WITH FORMAT: (180E15.6)          



                               DELC
 READING ON UNIT   11 WITH FORMAT: (180E15.6)          

 TOP ELEVATION OF LAYER 1 =   0.00000    

   MODEL LAYER BOTTOM EL. =  -52.0000     FOR LAYER   1


 STRESS PERIOD     LENGTH       TIME STEPS     MULTIPLIER FOR DELT    SS FLAG
 ----------------------------------------------------------------------------
        1         30.00000          1                    1.000         TR
        2         30.00000          1                    1.000         TR
        3         30.00000          1                    1.000         TR
        4         30.00000          1                    1.000         TR
        5         30.00000          1                    1.000         TR
        6         30.00000          1                    1.000         TR
        7         30.00000          1                    1.000         TR
        8         30.00000          1                    1.000         TR
        9         30.00000          1                    1.000         TR
       10         30.00000          1                    1.000         TR
       11         30.00000          1                    1.000         TR
       12         30.00000          1                    1.000         TR
       13         30.00000          1                    1.000         TR
       14         30.00000          1                    1.000         TR
       15         30.00000          1                    1.000         TR
       16         30.00000          1                    1.000         TR
       17         30.00000          1                    1.000         TR
       18         30.00000          1                    1.000         TR
       19         30.00000          1                    1.000         TR
       20         30.00000          1                    1.000         TR

 TRANSIENT SIMULATION



 
 # BAS6 package for  MODFLOW-2005, generated by Flopy.                           
 THE FREE FORMAT OPTION HAS BEEN SELECTED



                     BOUNDARY ARRAY FOR LAYER   1
 READING ON UNIT   13 WITH FORMAT: (180I10)            

 AQUIFER HEAD WILL BE SET TO  -999.99     AT ALL NO-FLOW NODES (IBOUND=0).

             INITIAL HEAD =   0.00000     FOR LAYER   1
 # OC package for  MODFLOW-2005, generated by Flopy.

 OUTPUT CONTROL IS SPECIFIED ONLY AT TIME STEPS FOR WHICH OUTPUT IS DESIRED
 COMPACT CELL-BY-CELL BUDGET FILES WILL BE WRITTEN
 AUXILIARY DATA WILL BE SAVED IN CELL-BY-CELL BUDGET FILES
 HEAD PRINT FORMAT CODE IS   0    DRAWDOWN PRINT FORMAT CODE IS   0
 HEADS WILL BE SAVED ON UNIT   51    DRAWDOWNS WILL BE SAVED ON UNIT    0

 LPF -- LAYER-PROPERTY FLOW PACKAGE, VERSION 7, 5/2/2005
         INPUT READ FROM UNIT   15
 # LPF package for  MODFLOW-2005, generated by Flopy.
 HEAD AT CELLS THAT CONVERT TO DRY= -1.00000E+30
 No named parameters

   LAYER FLAGS:
 LAYER       LAYTYP        LAYAVG         CHANI        LAYVKA        LAYWET
 ---------------------------------------------------------------------------
    1             0             0     1.000E+00             0             0

   INTERPRETATION OF LAYER FLAGS:
                        INTERBLOCK     HORIZONTAL    DATA IN
         LAYER TYPE   TRANSMISSIVITY   ANISOTROPY   ARRAY VKA   WETTABILITY
 LAYER      (LAYTYP)      (LAYAVG)       (CHANI)      (LAYVKA)      (LAYWET)
 ---------------------------------------------------------------------------
    1      CONFINED      HARMONIC     1.000E+00    VERTICAL K  NON-WETTABLE

 WETTING CAPABILITY IS NOT ACTIVE IN ANY LAYER

    HYD. COND. ALONG ROWS =   2.50000     FOR LAYER   1

      VERTICAL HYD. COND. =   2.50000     FOR LAYER   1

         SPECIFIC STORAGE =  2.000000E-04 FOR LAYER   1

 WEL -- WELL PACKAGE, VERSION 7, 5/2/2005 INPUT READ FROM UNIT   20
 # WEL package for  MODFLOW-2005, generated by Flopy.
 No named parameters
 MAXIMUM OF      1 ACTIVE WELLS AT ONE TIME


     0 Well parameters

 CHD -- TIME-VARIANT SPECIFIED-HEAD OPTION, VERSION 7, 5/2/2005
 INPUT READ FROM UNIT   24
 # CHD package for  MODFLOW-2005, generated by Flopy.
 No named parameters
 MAXIMUM OF    360 TIME-VARIANT SPECIFIED-HEAD CELLS AT ONE TIME


     0 TIME-VARIANT SPECIFIED-HEAD PARAMETERS

 PCG -- CONJUGATE-GRADIENT SOLUTION PACKAGE, VERSION 7, 5/2/2005
 # PCG package for  MODFLOW-2005, generated by Flopy.
 MAXIMUM OF     50 CALLS OF SOLUTION ROUTINE
 MAXIMUM OF     30 INTERNAL ITERATIONS PER CALL TO SOLUTION ROUTINE
 MATRIX PRECONDITIONING TYPE :    1



                                    SOLUTION BY THE CONJUGATE-GRADIENT METHOD
                                   -------------------------------------------
                    MAXIMUM NUMBER OF CALLS TO PCG ROUTINE =       50
                        MAXIMUM ITERATIONS PER CALL TO PCG =       30
                               MATRIX PRECONDITIONING TYPE =        1
        RELAXATION FACTOR (ONLY USED WITH PRECOND. TYPE 1) =    0.10000E+01
 PARAMETER OF POLYNOMIAL PRECOND. = 2 (2) OR IS CALCULATED :        0
                         HEAD CHANGE CRITERION FOR CLOSURE =    0.10000E-04
                     RESIDUAL CHANGE CRITERION FOR CLOSURE =    0.10000E-04
            PCG HEAD AND RESIDUAL CHANGE PRINTOUT INTERVAL =      999
     PRINTING FROM SOLVER IS LIMITED(1) OR SUPPRESSED (>1) =        3
                            STEADY-STATE DAMPING PARAMETER =    0.10000E+01
                               TRANSIENT DAMPING PARAMETER =    0.10000E+01


 ***Link-MT3DMS Package v7***
 OPENING LINK-MT3DMS OUTPUT FILE: mt3d_link.ftl                                                                                                                                                                                           
 ON UNIT NUMBER:    54
 FILE TYPE: UNFORMATTED
 HEADER OPTION: EXTENDED
 ***Link-MT3DMS Package v7***

1
                            STRESS PERIOD NO.    1, LENGTH =   30.00000    
                            -----------------------------------------------

                              NUMBER OF TIME STEPS =     1

                               MULTIPLIER FOR DELT =     1.000

                            INITIAL TIME STEP SIZE =   30.00000    

 WELL NO.  LAYER   ROW   COL   STRESS RATE         
 --------------------------------------------------
      1      1     91     91       1595.    

      1 WELL 

 CHD NO.   LAYER   ROW   COL    START HEAD        END HEAD         
 ------------------------------------------------------------------
      1      1      1      1      -7.500          -7.500    
      2      1      1    180       7.500           7.500    
      3      1      2      1      -7.500          -7.500    
      4      1      2    180       7.500           7.500    
      5      1      3      1      -7.500          -7.500    
      6      1      3    180       7.500           7.500    
      7      1      4      1      -7.500          -7.500    
      8      1      4    180       7.500           7.500    
      9      1      5      1      -7.500          -7.500    
     10      1      5    180       7.500           7.500    
     11      1      6      1      -7.500          -7.500    
     12      1      6    180       7.500           7.500    
     13      1      7      1      -7.500          -7.500    
     14      1      7    180       7.500           7.500    
     15      1      8      1      -7.500          -7.500    
     16      1      8    180       7.500           7.500    
     17      1      9      1      -7.500          -7.500    
     18      1      9    180       7.500           7.500    
     19      1     10      1      -7.500          -7.500    
     20      1     10    180       7.500           7.500    
     21      1     11      1      -7.500          -7.500    
     22      1     11    180       7.500           7.500    
     23      1     12      1      -7.500          -7.500    
     24      1     12    180       7.500           7.500    
     25      1     13      1      -7.500          -7.500    
     26      1     13    180       7.500           7.500    
     27      1     14      1      -7.500          -7.500    
     28      1     14    180       7.500           7.500    
     29      1     15      1      -7.500          -7.500    
     30      1     15    180       7.500           7.500    
     31      1     16      1      -7.500          -7.500    
     32      1     16    180       7.500           7.500    
     33      1     17      1      -7.500          -7.500    
     34      1     17    180       7.500           7.500    
     35      1     18      1      -7.500          -7.500    
     36      1     18    180       7.500           7.500    
     37      1     19      1      -7.500          -7.500    
     38      1     19    180       7.500           7.500    
     39      1     20      1      -7.500          -7.500    
     40      1     20    180       7.500           7.500    
     41      1     21      1      -7.500          -7.500    
     42      1     21    180       7.500           7.500    
     43      1     22      1      -7.500          -7.500    
     44      1     22    180       7.500           7.500    
     45      1     23      1      -7.500          -7.500    
     46      1     23    180       7.500           7.500    
     47      1     24      1      -7.500          -7.500    
     48      1     24    180       7.500           7.500    
     49      1     25      1      -7.500          -7.500    
     50      1     25    180       7.500           7.500    
     51      1     26      1      -7.500          -7.500    
     52      1     26    180       7.500           7.500    
     53      1     27      1      -7.500          -7.500    
     54      1     27    180       7.500           7.500    
     55      1     28      1      -7.500          -7.500    
     56      1     28    180       7.500           7.500    
     57      1     29      1      -7.500          -7.500    
     58      1     29    180       7.500           7.500    
     59      1     30      1      -7.500          -7.500    
     60      1     30    180       7.500           7.500    
     61      1     31      1      -7.500          -7.500    
     62      1     31    180       7.500           7.500    
     63      1     32      1      -7.500          -7.500    
     64      1     32    180       7.500           7.500    
     65      1     33      1      -7.500          -7.500    
     66      1     33    180       7.500           7.500    
     67      1     34      1      -7.500          -7.500    
     68      1     34    180       7.500           7.500    
     69      1     35      1      -7.500          -7.500    
     70      1     35    180       7.500           7.500    
     71      1     36      1      -7.500          -7.500    
     72      1     36    180       7.500           7.500    
     73      1     37      1      -7.500          -7.500    
     74      1     37    180       7.500           7.500    
     75      1     38      1      -7.500          -7.500    
     76      1     38    180       7.500           7.500    
     77      1     39      1      -7.500          -7.500    
     78      1     39    180       7.500           7.500    
     79      1     40      1      -7.500          -7.500    
     80      1     40    180       7.500           7.500    
     81      1     41      1      -7.500          -7.500    
     82      1     41    180       7.500           7.500    
     83      1     42      1      -7.500          -7.500    
     84      1     42    180       7.500           7.500    
     85      1     43      1      -7.500          -7.500    
     86      1     43    180       7.500           7.500    
     87      1     44      1      -7.500          -7.500    
     88      1     44    180       7.500           7.500    
     89      1     45      1      -7.500          -7.500    
     90      1     45    180       7.500           7.500    
     91      1     46      1      -7.500          -7.500    
     92      1     46    180       7.500           7.500    
     93      1     47      1      -7.500          -7.500    
     94      1     47    180       7.500           7.500    
     95      1     48      1      -7.500          -7.500    
     96      1     48    180       7.500           7.500    
     97      1     49      1      -7.500          -7.500    
     98      1     49    180       7.500           7.500    
     99      1     50      1      -7.500          -7.500    
    100      1     50    180       7.500           7.500    
    101      1     51      1      -7.500          -7.500    
    102      1     51    180       7.500           7.500    
    103      1     52      1      -7.500          -7.500    
    104      1     52    180       7.500           7.500    
    105      1     53      1      -7.500          -7.500    
    106      1     53    180       7.500           7.500    
    107      1     54      1      -7.500          -7.500    
    108      1     54    180       7.500           7.500    
    109      1     55      1      -7.500          -7.500    
    110      1     55    180       7.500           7.500    
    111      1     56      1      -7.500          -7.500    
    112      1     56    180       7.500           7.500    
    113      1     57      1      -7.500          -7.500    
    114      1     57    180       7.500           7.500    
    115      1     58      1      -7.500          -7.500    
    116      1     58    180       7.500           7.500    
    117      1     59      1      -7.500          -7.500    
    118      1     59    180       7.500           7.500    
    119      1     60      1      -7.500          -7.500    
    120      1     60    180       7.500           7.500    
    121      1     61      1      -7.500          -7.500    
    122      1     61    180       7.500           7.500    
    123      1     62      1      -7.500          -7.500    
    124      1     62    180       7.500           7.500    
    125      1     63      1      -7.500          -7.500    
    126      1     63    180       7.500           7.500    
    127      1     64      1      -7.500          -7.500    
    128      1     64    180       7.500           7.500    
    129      1     65      1      -7.500          -7.500    
    130      1     65    180       7.500           7.500    
    131      1     66      1      -7.500          -7.500    
    132      1     66    180       7.500           7.500    
    133      1     67      1      -7.500          -7.500    
    134      1     67    180       7.500           7.500    
    135      1     68      1      -7.500          -7.500    
    136      1     68    180       7.500           7.500    
    137      1     69      1      -7.500          -7.500    
    138      1     69    180       7.500           7.500    
    139      1     70      1      -7.500          -7.500    
    140      1     70    180       7.500           7.500    
    141      1     71      1      -7.500          -7.500    
    142      1     71    180       7.500           7.500    
    143      1     72      1      -7.500          -7.500    
    144      1     72    180       7.500           7.500    
    145      1     73      1      -7.500          -7.500    
    146      1     73    180       7.500           7.500    
    147      1     74      1      -7.500          -7.500    
    148      1     74    180       7.500           7.500    
    149      1     75      1      -7.500          -7.500    
    150      1     75    180       7.500           7.500    
    151      1     76      1      -7.500          -7.500    
    152      1     76    180       7.500           7.500    
    153      1     77      1      -7.500          -7.500    
    154      1     77    180       7.500           7.500    
    155      1     78      1      -7.500          -7.500    
    156      1     78    180       7.500           7.500    
    157      1     79      1      -7.500          -7.500    
    158      1     79    180       7.500           7.500    
    159      1     80      1      -7.500          -7.500    
    160      1     80    180       7.500           7.500    
    161      1     81      1      -7.500          -7.500    
    162      1     81    180       7.500           7.500    
    163      1     82      1      -7.500          -7.500    
    164      1     82    180       7.500           7.500    
    165      1     83      1      -7.500          -7.500    
    166      1     83    180       7.500           7.500    
    167      1     84      1      -7.500          -7.500    
    168      1     84    180       7.500           7.500    
    169      1     85      1      -7.500          -7.500    
    170      1     85    180       7.500           7.500    
    171      1     86      1      -7.500          -7.500    
    172      1     86    180       7.500           7.500    
    173      1     87      1      -7.500          -7.500    
    174      1     87    180       7.500           7.500    
    175      1     88      1      -7.500          -7.500    
    176      1     88    180       7.500           7.500    
    177      1     89      1      -7.500          -7.500    
    178      1     89    180       7.500           7.500    
    179      1     90      1      -7.500          -7.500    
    180      1     90    180       7.500           7.500    
    181      1     91      1      -7.500          -7.500    
    182      1     91    180       7.500           7.500    
    183      1     92      1      -7.500          -7.500    
    184      1     92    180       7.500           7.500    
    185      1     93      1      -7.500          -7.500    
    186      1     93    180       7.500           7.500    
    187      1     94      1      -7.500          -7.500    
    188      1     94    180       7.500           7.500    
    189      1     95      1      -7.500          -7.500    
    190      1     95    180       7.500           7.500    
    191      1     96      1      -7.500          -7.500    
    192      1     96    180       7.500           7.500    
    193      1     97      1      -7.500          -7.500    
    194      1     97    180       7.500           7.500    
    195      1     98      1      -7.500          -7.500    
    196      1     98    180       7.500           7.500    
    197      1     99      1      -7.500          -7.500    
    198      1     99    180       7.500           7.500    
    199      1    100      1      -7.500          -7.500    
    200      1    100    180       7.500           7.500    
    201      1    101      1      -7.500          -7.500    
    202      1    101    180       7.500           7.500    
    203      1    102      1      -7.500          -7.500    
    204      1    102    180       7.500           7.500    
    205      1    103      1      -7.500          -7.500    
    206      1    103    180       7.500           7.500    
    207      1    104      1      -7.500          -7.500    
    208      1    104    180       7.500           7.500    
    209      1    105      1      -7.500          -7.500    
    210      1    105    180       7.500           7.500    
    211      1    106      1      -7.500          -7.500    
    212      1    106    180       7.500           7.500    
    213      1    107      1      -7.500          -7.500    
    214      1    107    180       7.500           7.500    
    215      1    108      1      -7.500          -7.500    
    216      1    108    180       7.500           7.500    
    217      1    109      1      -7.500          -7.500    
    218      1    109    180       7.500           7.500    
    219      1    110      1      -7.500          -7.500    
    220      1    110    180       7.500           7.500    
    221      1    111      1      -7.500          -7.500    
    222      1    111    180       7.500           7.500    
    223      1    112      1      -7.500          -7.500    
    224      1    112    180       7.500           7.500    
    225      1    113      1      -7.500          -7.500    
    226      1    113    180       7.500           7.500    
    227      1    114      1      -7.500          -7.500    
    228      1    114    180       7.500           7.500    
    229      1    115      1      -7.500          -7.500    
    230      1    115    180       7.500           7.500    
    231      1    116      1      -7.500          -7.500    
    232      1    116    180       7.500           7.500    
    233      1    117      1      -7.500          -7.500    
    234      1    117    180       7.500           7.500    
    235      1    118      1      -7.500          -7.500    
    236      1    118    180       7.500           7.500    
    237      1    119      1      -7.500          -7.500    
    238      1    119    180       7.500           7.500    
    239      1    120      1      -7.500          -7.500    
    240      1    120    180       7.500           7.500    
    241      1    121      1      -7.500          -7.500    
    242      1    121    180       7.500           7.500    
    243      1    122      1      -7.500          -7.500    
    244      1    122    180       7.500           7.500    
    245      1    123      1      -7.500          -7.500    
    246      1    123    180       7.500           7.500    
    247      1    124      1      -7.500          -7.500    
    248      1    124    180       7.500           7.500    
    249      1    125      1      -7.500          -7.500    
    250      1    125    180       7.500           7.500    
    251      1    126      1      -7.500          -7.500    
    252      1    126    180       7.500           7.500    
    253      1    127      1      -7.500          -7.500    
    254      1    127    180       7.500           7.500    
    255      1    128      1      -7.500          -7.500    
    256      1    128    180       7.500           7.500    
    257      1    129      1      -7.500          -7.500    
    258      1    129    180       7.500           7.500    
    259      1    130      1      -7.500          -7.500    
    260      1    130    180       7.500           7.500    
    261      1    131      1      -7.500          -7.500    
    262      1    131    180       7.500           7.500    
    263      1    132      1      -7.500          -7.500    
    264      1    132    180       7.500           7.500    
    265      1    133      1      -7.500          -7.500    
    266      1    133    180       7.500           7.500    
    267      1    134      1      -7.500          -7.500    
    268      1    134    180       7.500           7.500    
    269      1    135      1      -7.500          -7.500    
    270      1    135    180       7.500           7.500    
    271      1    136      1      -7.500          -7.500    
    272      1    136    180       7.500           7.500    
    273      1    137      1      -7.500          -7.500    
    274      1    137    180       7.500           7.500    
    275      1    138      1      -7.500          -7.500    
    276      1    138    180       7.500           7.500    
    277      1    139      1      -7.500          -7.500    
    278      1    139    180       7.500           7.500    
    279      1    140      1      -7.500          -7.500    
    280      1    140    180       7.500           7.500    
    281      1    141      1      -7.500          -7.500    
    282      1    141    180       7.500           7.500    
    283      1    142      1      -7.500          -7.500    
    284      1    142    180       7.500           7.500    
    285      1    143      1      -7.500          -7.500    
    286      1    143    180       7.500           7.500    
    287      1    144      1      -7.500          -7.500    
    288      1    144    180       7.500           7.500    
    289      1    145      1      -7.500          -7.500    
    290      1    145    180       7.500           7.500    
    291      1    146      1      -7.500          -7.500    
    292      1    146    180       7.500           7.500    
    293      1    147      1      -7.500          -7.500    
    294      1    147    180       7.500           7.500    
    295      1    148      1      -7.500          -7.500    
    296      1    148    180       7.500           7.500    
    297      1    149      1      -7.500          -7.500    
    298      1    149    180       7.500           7.500    
    299      1    150      1      -7.500          -7.500    
    300      1    150    180       7.500           7.500    
    301      1    151      1      -7.500          -7.500    
    302      1    151    180       7.500           7.500    
    303      1    152      1      -7.500          -7.500    
    304      1    152    180       7.500           7.500    
    305      1    153      1      -7.500          -7.500    
    306      1    153    180       7.500           7.500    
    307      1    154      1      -7.500          -7.500    
    308      1    154    180       7.500           7.500    
    309      1    155      1      -7.500          -7.500    
    310      1    155    180       7.500           7.500    
    311      1    156      1      -7.500          -7.500    
    312      1    156    180       7.500           7.500    
    313      1    157      1      -7.500          -7.500    
    314      1    157    180       7.500           7.500    
    315      1    158      1      -7.500          -7.500    
    316      1    158    180       7.500           7.500    
    317      1    159      1      -7.500          -7.500    
    318      1    159    180       7.500           7.500    
    319      1    160      1      -7.500          -7.500    
    320      1    160    180       7.500           7.500    
    321      1    161      1      -7.500          -7.500    
    322      1    161    180       7.500           7.500    
    323      1    162      1      -7.500          -7.500    
    324      1    162    180       7.500           7.500    
    325      1    163      1      -7.500          -7.500    
    326      1    163    180       7.500           7.500    
    327      1    164      1      -7.500          -7.500    
    328      1    164    180       7.500           7.500    
    329      1    165      1      -7.500          -7.500    
    330      1    165    180       7.500           7.500    
    331      1    166      1      -7.500          -7.500    
    332      1    166    180       7.500           7.500    
    333      1    167      1      -7.500          -7.500    
    334      1    167    180       7.500           7.500    
    335      1    168      1      -7.500          -7.500    
    336      1    168    180       7.500           7.500    
    337      1    169      1      -7.500          -7.500    
    338      1    169    180       7.500           7.500    
    339      1    170      1      -7.500          -7.500    
    340      1    170    180       7.500           7.500    
    341      1    171      1      -7.500          -7.500    
    342      1    171    180       7.500           7.500    
    343      1    172      1      -7.500          -7.500    
    344      1    172    180       7.500           7.500    
    345      1    173      1      -7.500          -7.500    
    346      1    173    180       7.500           7.500    
    347      1    174      1      -7.500          -7.500    
    348      1    174    180       7.500           7.500    
    349      1    175      1      -7.500          -7.500    
    350      1    175    180       7.500           7.500    
    351      1    176      1      -7.500          -7.500    
    352      1    176    180       7.500           7.500    
    353      1    177      1      -7.500          -7.500    
    354      1    177    180       7.500           7.500    
    355      1    178      1      -7.500          -7.500    
    356      1    178    180       7.500           7.500    
    357      1    179      1      -7.500          -7.500    
    358      1    179    180       7.500           7.500    
    359      1    180      1      -7.500          -7.500    
    360      1    180    180       7.500           7.500    


    360 TIME-VARIANT SPECIFIED-HEAD CELLS
 
 SOLVING FOR HEAD 

 OUTPUT CONTROL FOR STRESS PERIOD    1   TIME STEP    1
    SAVE HEAD FOR ALL LAYERS

 SAVING SATURATED THICKNESS AND FLOW TERMS ON UNIT   54 FOR MT3DMS
 BY THE LINK-MT3DMS PACKAGE V7 AT TIME STEP    1, STRESS PERIOD    1


 HEAD WILL BE SAVED ON UNIT   51 AT END OF TIME STEP    1, STRESS PERIOD    1
1
  VOLUMETRIC BUDGET FOR ENTIRE MODEL AT END OF TIME STEP    1, STRESS PERIOD   1
  ------------------------------------------------------------------------------

     CUMULATIVE VOLUMES      L**3       RATES FOR THIS TIME STEP      L**3/T
     ------------------                 ------------------------

           IN:                                      IN:
           ---                                      ---
             STORAGE =      221790.6094               STORAGE =        7393.0205
       CONSTANT HEAD =      227499.7031         CONSTANT HEAD =        7583.3232
               WELLS =       47851.7109                 WELLS =        1595.0570

            TOTAL IN =      497142.0000              TOTAL IN =       16571.4004

          OUT:                                     OUT:
          ----                                     ----
             STORAGE =      269529.7812               STORAGE =        8984.3262
       CONSTANT HEAD =      227612.2188         CONSTANT HEAD =        7587.0742
               WELLS =           0.0000                 WELLS =           0.0000

           TOTAL OUT =      497142.0000             TOTAL OUT =       16571.4004

            IN - OUT =           0.0000              IN - OUT =           0.0000

 PERCENT DISCREPANCY =           0.00     PERCENT DISCREPANCY =           0.00






         TIME SUMMARY AT END OF TIME STEP    1 IN STRESS PERIOD    1
                    SECONDS     MINUTES      HOURS       DAYS        YEARS
                    -----------------------------------------------------------
   TIME STEP LENGTH 2.59200E+06  43200.      720.00      30.000     8.21355E-02
 STRESS PERIOD TIME 2.59200E+06  43200.      720.00      30.000     8.21355E-02
         TOTAL TIME 2.59200E+06  43200.      720.00      30.000     8.21355E-02
1
1
                            STRESS PERIOD NO.    2, LENGTH =   30.00000    
                            -----------------------------------------------

                              NUMBER OF TIME STEPS =     1

                               MULTIPLIER FOR DELT =     1.000

                            INITIAL TIME STEP SIZE =   30.00000    

 WELL NO.  LAYER   ROW   COL   STRESS RATE         
 --------------------------------------------------
      1      1     91     91       991.9    

      1 WELL 

 CHD NO.   LAYER   ROW   COL    START HEAD        END HEAD         
 ------------------------------------------------------------------
      1      1      1      1      -7.500          -7.500    
      2      1      1    180       7.500           7.500    
      3      1      2      1      -7.500          -7.500    
      4      1      2    180       7.500           7.500    
      5      1      3      1      -7.500          -7.500    
      6      1      3    180       7.500           7.500    
      7      1      4      1      -7.500          -7.500    
      8      1      4    180       7.500           7.500    
      9      1      5      1      -7.500          -7.500    
     10      1      5    180       7.500           7.500    
     11      1      6      1      -7.500          -7.500    
     12      1      6    180       7.500           7.500    
     13      1      7      1      -7.500          -7.500    
     14      1      7    180       7.500           7.500    
     15      1      8      1      -7.500          -7.500    
     16      1      8    180       7.500           7.500    
     17      1      9      1      -7.500          -7.500    
     18      1      9    180       7.500           7.500    
     19      1     10      1      -7.500          -7.500    
     20      1     10    180       7.500           7.500    
     21      1     11      1      -7.500          -7.500    
     22      1     11    180       7.500           7.500    
     23      1     12      1      -7.500          -7.500    
     24      1     12    180       7.500           7.500    
     25      1     13      1      -7.500          -7.500    
     26      1     13    180       7.500           7.500    
     27      1     14      1      -7.500          -7.500    
     28      1     14    180       7.500           7.500    
     29      1     15      1      -7.500          -7.500    
     30      1     15    180       7.500           7.500    
     31      1     16      1      -7.500          -7.500    
     32      1     16    180       7.500           7.500    
     33      1     17      1      -7.500          -7.500    
     34      1     17    180       7.500           7.500    
     35      1     18      1      -7.500          -7.500    
     36      1     18    180       7.500           7.500    
     37      1     19      1      -7.500          -7.500    
     38      1     19    180       7.500           7.500    
     39      1     20      1      -7.500          -7.500    
     40      1     20    180       7.500           7.500    
     41      1     21      1      -7.500          -7.500    
     42      1     21    180       7.500           7.500    
     43      1     22      1      -7.500          -7.500    
     44      1     22    180       7.500           7.500    
     45      1     23      1      -7.500          -7.500    
     46      1     23    180       7.500           7.500    
     47      1     24      1      -7.500          -7.500    
     48      1     24    180       7.500           7.500    
     49      1     25      1      -7.500          -7.500    
     50      1     25    180       7.500           7.500    
     51      1     26      1      -7.500          -7.500    
     52      1     26    180       7.500           7.500    
     53      1     27      1      -7.500          -7.500    
     54      1     27    180       7.500           7.500    
     55      1     28      1      -7.500          -7.500    
     56      1     28    180       7.500           7.500    
     57      1     29      1      -7.500          -7.500    
     58      1     29    180       7.500           7.500    
     59      1     30      1      -7.500          -7.500    
     60      1     30    180       7.500           7.500    
     61      1     31      1      -7.500          -7.500    
     62      1     31    180       7.500           7.500    
     63      1     32      1      -7.500          -7.500    
     64      1     32    180       7.500           7.500    
     65      1     33      1      -7.500          -7.500    
     66      1     33    180       7.500           7.500    
     67      1     34      1      -7.500          -7.500    
     68      1     34    180       7.500           7.500    
     69      1     35      1      -7.500          -7.500    
     70      1     35    180       7.500           7.500    
     71      1     36      1      -7.500          -7.500    
     72      1     36    180       7.500           7.500    
     73      1     37      1      -7.500          -7.500    
     74      1     37    180       7.500           7.500    
     75      1     38      1      -7.500          -7.500    
     76      1     38    180       7.500           7.500    
     77      1     39      1      -7.500          -7.500    
     78      1     39    180       7.500           7.500    
     79      1     40      1      -7.500          -7.500    
     80      1     40    180       7.500           7.500    
     81      1     41      1      -7.500          -7.500    
     82      1     41    180       7.500           7.500    
     83      1     42      1      -7.500          -7.500    
     84      1     42    180       7.500           7.500    
     85      1     43      1      -7.500          -7.500    
     86      1     43    180       7.500           7.500    
     87      1     44      1      -7.500          -7.500    
     88      1     44    180       7.500           7.500    
     89      1     45      1      -7.500          -7.500    
     90      1     45    180       7.500           7.500    
     91      1     46      1      -7.500          -7.500    
     92      1     46    180       7.500           7.500    
     93      1     47      1      -7.500          -7.500    
     94      1     47    180       7.500           7.500    
     95      1     48      1      -7.500          -7.500    
     96      1     48    180       7.500           7.500    
     97      1     49      1      -7.500          -7.500    
     98      1     49    180       7.500           7.500    
     99      1     50      1      -7.500          -7.500    
    100      1     50    180       7.500           7.500    
    101      1     51      1      -7.500          -7.500    
    102      1     51    180       7.500           7.500    
    103      1     52      1      -7.500          -7.500    
    104      1     52    180       7.500           7.500    
    105      1     53      1      -7.500          -7.500    
    106      1     53    180       7.500           7.500    
    107      1     54      1      -7.500          -7.500    
    108      1     54    180       7.500           7.500    
    109      1     55      1      -7.500          -7.500    
    110      1     55    180       7.500           7.500    
    111      1     56      1      -7.500          -7.500    
    112      1     56    180       7.500           7.500    
    113      1     57      1      -7.500          -7.500    
    114      1     57    180       7.500           7.500    
    115      1     58      1      -7.500          -7.500    
    116      1     58    180       7.500           7.500    
    117      1     59      1      -7.500          -7.500    
    118      1     59    180       7.500           7.500    
    119      1     60      1      -7.500          -7.500    
    120      1     60    180       7.500           7.500    
    121      1     61      1      -7.500          -7.500    
    122      1     61    180       7.500           7.500    
    123      1     62      1      -7.500          -7.500    
    124      1     62    180       7.500           7.500    
    125      1     63      1      -7.500          -7.500    
    126      1     63    180       7.500           7.500    
    127      1     64      1      -7.500          -7.500    
    128      1     64    180       7.500           7.500    
    129      1     65      1      -7.500          -7.500    
    130      1     65    180       7.500           7.500    
    131      1     66      1      -7.500          -7.500    
    132      1     66    180       7.500           7.500    
    133      1     67      1      -7.500          -7.500    
    134      1     67    180       7.500           7.500    
    135      1     68      1      -7.500          -7.500    
    136      1     68    180       7.500           7.500    
    137      1     69      1      -7.500          -7.500    
    138      1     69    180       7.500           7.500    
    139      1     70      1      -7.500          -7.500    
    140      1     70    180       7.500           7.500    
    141      1     71      1      -7.500          -7.500    
    142      1     71    180       7.500           7.500    
    143      1     72      1      -7.500          -7.500    
    144      1     72    180       7.500           7.500    
    145      1     73      1      -7.500          -7.500    
    146      1     73    180       7.500           7.500    
    147      1     74      1      -7.500          -7.500    
    148      1     74    180       7.500           7.500    
    149      1     75      1      -7.500          -7.500    
    150      1     75    180       7.500           7.500    
    151      1     76      1      -7.500          -7.500    
    152      1     76    180       7.500           7.500    
    153      1     77      1      -7.500          -7.500    
    154      1     77    180       7.500           7.500    
    155      1     78      1      -7.500          -7.500    
    156      1     78    180       7.500           7.500    
    157      1     79      1      -7.500          -7.500    
    158      1     79    180       7.500           7.500    
    159      1     80      1      -7.500          -7.500    
    160      1     80    180       7.500           7.500    
    161      1     81      1      -7.500          -7.500    
    162      1     81    180       7.500           7.500    
    163      1     82      1      -7.500          -7.500    
    164      1     82    180       7.500           7.500    
    165      1     83      1      -7.500          -7.500    
    166      1     83    180       7.500           7.500    
    167      1     84      1      -7.500          -7.500    
    168      1     84    180       7.500           7.500    
    169      1     85      1      -7.500          -7.500    
    170      1     85    180       7.500           7.500    
    171      1     86      1      -7.500          -7.500    
    172      1     86    180       7.500           7.500    
    173      1     87      1      -7.500          -7.500    
    174      1     87    180       7.500           7.500    
    175      1     88      1      -7.500          -7.500    
    176      1     88    180       7.500           7.500    
    177      1     89      1      -7.500          -7.500    
    178      1     89    180       7.500           7.500    
    179      1     90      1      -7.500          -7.500    
    180      1     90    180       7.500           7.500    
    181      1     91      1      -7.500          -7.500    
    182      1     91    180       7.500           7.500    
    183      1     92      1      -7.500          -7.500    
    184      1     92    180       7.500           7.500    
    185      1     93      1      -7.500          -7.500    
    186      1     93    180       7.500           7.500    
    187      1     94      1      -7.500          -7.500    
    188      1     94    180       7.500           7.500    
    189      1     95      1      -7.500          -7.500    
    190      1     95    180       7.500           7.500    
    191      1     96      1      -7.500          -7.500    
    192      1     96    180       7.500           7.500    
    193      1     97      1      -7.500          -7.500    
    194      1     97    180       7.500           7.500    
    195      1     98      1      -7.500          -7.500    
    196      1     98    180       7.500           7.500    
    197      1     99      1      -7.500          -7.500    
    198      1     99    180       7.500           7.500    
    199      1    100      1      -7.500          -7.500    
    200      1    100    180       7.500           7.500    
    201      1    101      1      -7.500          -7.500    
    202      1    101    180       7.500           7.500    
    203      1    102      1      -7.500          -7.500    
    204      1    102    180       7.500           7.500    
    205      1    103      1      -7.500          -7.500    
    206      1    103    180       7.500           7.500    
    207      1    104      1      -7.500          -7.500    
    208      1    104    180       7.500           7.500    
    209      1    105      1      -7.500          -7.500    
    210      1    105    180       7.500           7.500    
    211      1    106      1      -7.500          -7.500    
    212      1    106    180       7.500           7.500    
    213      1    107      1      -7.500          -7.500    
    214      1    107    180       7.500           7.500    
    215      1    108      1      -7.500          -7.500    
    216      1    108    180       7.500           7.500    
    217      1    109      1      -7.500          -7.500    
    218      1    109    180       7.500           7.500    
    219      1    110      1      -7.500          -7.500    
    220      1    110    180       7.500           7.500    
    221      1    111      1      -7.500          -7.500    
    222      1    111    180       7.500           7.500    
    223      1    112      1      -7.500          -7.500    
    224      1    112    180       7.500           7.500    
    225      1    113      1      -7.500          -7.500    
    226      1    113    180       7.500           7.500    
    227      1    114      1      -7.500          -7.500    
    228      1    114    180       7.500           7.500    
    229      1    115      1      -7.500          -7.500    
    230      1    115    180       7.500           7.500    
    231      1    116      1      -7.500          -7.500    
    232      1    116    180       7.500           7.500    
    233      1    117      1      -7.500          -7.500    
    234      1    117    180       7.500           7.500    
    235      1    118      1      -7.500          -7.500    
    236      1    118    180       7.500           7.500    
    237      1    119      1      -7.500          -7.500    
    238      1    119    180       7.500           7.500    
    239      1    120      1      -7.500          -7.500    
    240      1    120    180       7.500           7.500    
    241      1    121      1      -7.500          -7.500    
    242      1    121    180       7.500           7.500    
    243      1    122      1      -7.500          -7.500    
    244      1    122    180       7.500           7.500    
    245      1    123      1      -7.500          -7.500    
    246      1    123    180       7.500           7.500    
    247      1    124      1      -7.500          -7.500    
    248      1    124    180       7.500           7.500    
    249      1    125      1      -7.500          -7.500    
    250      1    125    180       7.500           7.500    
    251      1    126      1      -7.500          -7.500    
    252      1    126    180       7.500           7.500    
    253      1    127      1      -7.500          -7.500    
    254      1    127    180       7.500           7.500    
    255      1    128      1      -7.500          -7.500    
    256      1    128    180       7.500           7.500    
    257      1    129      1      -7.500          -7.500    
    258      1    129    180       7.500           7.500    
    259      1    130      1      -7.500          -7.500    
    260      1    130    180       7.500           7.500    
    261      1    131      1      -7.500          -7.500    
    262      1    131    180       7.500           7.500    
    263      1    132      1      -7.500          -7.500    
    264      1    132    180       7.500           7.500    
    265      1    133      1      -7.500          -7.500    
    266      1    133    180       7.500           7.500    
    267      1    134      1      -7.500          -7.500    
    268      1    134    180       7.500           7.500    
    269      1    135      1      -7.500          -7.500    
    270      1    135    180       7.500           7.500    
    271      1    136      1      -7.500          -7.500    
    272      1    136    180       7.500           7.500    
    273      1    137      1      -7.500          -7.500    
    274      1    137    180       7.500           7.500    
    275      1    138      1      -7.500          -7.500    
    276      1    138    180       7.500           7.500    
    277      1    139      1      -7.500          -7.500    
    278      1    139    180       7.500           7.500    
    279      1    140      1      -7.500          -7.500    
    280      1    140    180       7.500           7.500    
    281      1    141      1      -7.500          -7.500    
    282      1    141    180       7.500           7.500    
    283      1    142      1      -7.500          -7.500    
    284      1    142    180       7.500           7.500    
    285      1    143      1      -7.500          -7.500    
    286      1    143    180       7.500           7.500    
    287      1    144      1      -7.500          -7.500    
    288      1    144    180       7.500           7.500    
    289      1    145      1      -7.500          -7.500    
    290      1    145    180       7.500           7.500    
    291      1    146      1      -7.500          -7.500    
    292      1    146    180       7.500           7.500    
    293      1    147      1      -7.500          -7.500    
    294      1    147    180       7.500           7.500    
    295      1    148      1      -7.500          -7.500    
    296      1    148    180       7.500           7.500    
    297      1    149      1      -7.500          -7.500    
    298      1    149    180       7.500           7.500    
    299      1    150      1      -7.500          -7.500    
    300      1    150    180       7.500           7.500    
    301      1    151      1      -7.500          -7.500    
    302      1    151    180       7.500           7.500    
    303      1    152      1      -7.500          -7.500    
    304      1    152    180       7.500           7.500    
    305      1    153      1      -7.500          -7.500    
    306      1    153    180       7.500           7.500    
    307      1    154      1      -7.500          -7.500    
    308      1    154    180       7.500           7.500    
    309      1    155      1      -7.500          -7.500    
    310      1    155    180       7.500           7.500    
    311      1    156      1      -7.500          -7.500    
    312      1    156    180       7.500           7.500    
    313      1    157      1      -7.500          -7.500    
    314      1    157    180       7.500           7.500    
    315      1    158      1      -7.500          -7.500    
    316      1    158    180       7.500           7.500    
    317      1    159      1      -7.500          -7.500    
    318      1    159    180       7.500           7.500    
    319      1    160      1      -7.500          -7.500    
    320      1    160    180       7.500           7.500    
    321      1    161      1      -7.500          -7.500    
    322      1    161    180       7.500           7.500    
    323      1    162      1      -7.500          -7.500    
    324      1    162    180       7.500           7.500    
    325      1    163      1      -7.500          -7.500    
    326      1    163    180       7.500           7.500    
    327      1    164      1      -7.500          -7.500    
    328      1    164    180       7.500           7.500    
    329      1    165      1      -7.500          -7.500    
    330      1    165    180       7.500           7.500    
    331      1    166      1      -7.500          -7.500    
    332      1    166    180       7.500           7.500    
    333      1    167      1      -7.500          -7.500    
    334      1    167    180       7.500           7.500    
    335      1    168      1      -7.500          -7.500    
    336      1    168    180       7.500           7.500    
    337      1    169      1      -7.500          -7.500    
    338      1    169    180       7.500           7.500    
    339      1    170      1      -7.500          -7.500    
    340      1    170    180       7.500           7.500    
    341      1    171      1      -7.500          -7.500    
    342      1    171    180       7.500           7.500    
    343      1    172      1      -7.500          -7.500    
    344      1    172    180       7.500           7.500    
    345      1    173      1      -7.500          -7.500    
    346      1    173    180       7.500           7.500    
    347      1    174      1      -7.500          -7.500    
    348      1    174    180       7.500           7.500    
    349      1    175      1      -7.500          -7.500    
    350      1    175    180       7.500           7.500    
    351      1    176      1      -7.500          -7.500    
    352      1    176    180       7.500           7.500    
    353      1    177      1      -7.500          -7.500    
    354      1    177    180       7.500           7.500    
    355      1    178      1      -7.500          -7.500    
    356      1    178    180       7.500           7.500    
    357      1    179      1      -7.500          -7.500    
    358      1    179    180       7.500           7.500    
    359      1    180      1      -7.500          -7.500    
    360      1    180    180       7.500           7.500    


    360 TIME-VARIANT SPECIFIED-HEAD CELLS
 
 SOLVING FOR HEAD 

 OUTPUT CONTROL FOR STRESS PERIOD    2   TIME STEP    1
    SAVE HEAD FOR ALL LAYERS

 SAVING SATURATED THICKNESS AND FLOW TERMS ON UNIT   54 FOR MT3DMS
 BY THE LINK-MT3DMS PACKAGE V7 AT TIME STEP    1, STRESS PERIOD    2


 HEAD WILL BE SAVED ON UNIT   51 AT END OF TIME STEP    1, STRESS PERIOD    2
1
  VOLUMETRIC BUDGET FOR ENTIRE MODEL AT END OF TIME STEP    1, STRESS PERIOD   2
  ------------------------------------------------------------------------------

     CUMULATIVE VOLUMES      L**3       RATES FOR THIS TIME STEP      L**3/T
     ------------------                 ------------------------

           IN:                                      IN:
           ---                                      ---
             STORAGE =      395687.6875               STORAGE =        5796.5688
       CONSTANT HEAD =      413056.4375         CONSTANT HEAD =        6185.2241
               WELLS =       77609.5078                 WELLS =         991.9266

            TOTAL IN =      886353.6250              TOTAL IN =       12973.7197

          OUT:                                     OUT:
          ----                                     ----
             STORAGE =      472783.2500               STORAGE =        6775.1157
       CONSTANT HEAD =      413570.3125         CONSTANT HEAD =        6198.6035
               WELLS =           0.0000                 WELLS =           0.0000

           TOTAL OUT =      886353.5625             TOTAL OUT =       12973.7188

            IN - OUT =       6.2500E-02              IN - OUT =       9.7656E-04

 PERCENT DISCREPANCY =           0.00     PERCENT DISCREPANCY =           0.00






         TIME SUMMARY AT END OF TIME STEP    1 IN STRESS PERIOD    2
                    SECONDS     MINUTES      HOURS       DAYS        YEARS
                    -----------------------------------------------------------
   TIME STEP LENGTH 2.59200E+06  43200.      720.00      30.000     8.21355E-02
 STRESS PERIOD TIME 2.59200E+06  43200.      720.00      30.000     8.21355E-02
         TOTAL TIME 5.18400E+06  86400.      1440.0      60.000     0.16427    
1
1
                            STRESS PERIOD NO.    3, LENGTH =   30.00000    
                            -----------------------------------------------

                              NUMBER OF TIME STEPS =     1

                               MULTIPLIER FOR DELT =     1.000

                            INITIAL TIME STEP SIZE =   30.00000    

 WELL NO.  LAYER   ROW   COL   STRESS RATE         
 --------------------------------------------------
      1      1     91     91       1994.    

      1 WELL 

 CHD NO.   LAYER   ROW   COL    START HEAD        END HEAD         
 ------------------------------------------------------------------
      1      1      1      1      -7.500          -7.500    
      2      1      1    180       7.500           7.500    
      3      1      2      1      -7.500          -7.500    
      4      1      2    180       7.500           7.500    
      5      1      3      1      -7.500          -7.500    
      6      1      3    180       7.500           7.500    
      7      1      4      1      -7.500          -7.500    
      8      1      4    180       7.500           7.500    
      9      1      5      1      -7.500          -7.500    
     10      1      5    180       7.500           7.500    
     11      1      6      1      -7.500          -7.500    
     12      1      6    180       7.500           7.500    
     13      1      7      1      -7.500          -7.500    
     14      1      7    180       7.500           7.500    
     15      1      8      1      -7.500          -7.500    
     16      1      8    180       7.500           7.500    
     17      1      9      1      -7.500          -7.500    
     18      1      9    180       7.500           7.500    
     19      1     10      1      -7.500          -7.500    
     20      1     10    180       7.500           7.500    
     21      1     11      1      -7.500          -7.500    
     22      1     11    180       7.500           7.500    
     23      1     12      1      -7.500          -7.500    
     24      1     12    180       7.500           7.500    
     25      1     13      1      -7.500          -7.500    
     26      1     13    180       7.500           7.500    
     27      1     14      1      -7.500          -7.500    
     28      1     14    180       7.500           7.500    
     29      1     15      1      -7.500          -7.500    
     30      1     15    180       7.500           7.500    
     31      1     16      1      -7.500          -7.500    
     32      1     16    180       7.500           7.500    
     33      1     17      1      -7.500          -7.500    
     34      1     17    180       7.500           7.500    
     35      1     18      1      -7.500          -7.500    
     36      1     18    180       7.500           7.500    
     37      1     19      1      -7.500          -7.500    
     38      1     19    180       7.500           7.500    
     39      1     20      1      -7.500          -7.500    
     40      1     20    180       7.500           7.500    
     41      1     21      1      -7.500          -7.500    
     42      1     21    180       7.500           7.500    
     43      1     22      1      -7.500          -7.500    
     44      1     22    180       7.500           7.500    
     45      1     23      1      -7.500          -7.500    
     46      1     23    180       7.500           7.500    
     47      1     24      1      -7.500          -7.500    
     48      1     24    180       7.500           7.500    
     49      1     25      1      -7.500          -7.500    
     50      1     25    180       7.500           7.500    
     51      1     26      1      -7.500          -7.500    
     52      1     26    180       7.500           7.500    
     53      1     27      1      -7.500          -7.500    
     54      1     27    180       7.500           7.500    
     55      1     28      1      -7.500          -7.500    
     56      1     28    180       7.500           7.500    
     57      1     29      1      -7.500          -7.500    
     58      1     29    180       7.500           7.500    
     59      1     30      1      -7.500          -7.500    
     60      1     30    180       7.500           7.500    
     61      1     31      1      -7.500          -7.500    
     62      1     31    180       7.500           7.500    
     63      1     32      1      -7.500          -7.500    
     64      1     32    180       7.500           7.500    
     65      1     33      1      -7.500          -7.500    
     66      1     33    180       7.500           7.500    
     67      1     34      1      -7.500          -7.500    
     68      1     34    180       7.500           7.500    
     69      1     35      1      -7.500          -7.500    
     70      1     35    180       7.500           7.500    
     71      1     36      1      -7.500          -7.500    
     72      1     36    180       7.500           7.500    
     73      1     37      1      -7.500          -7.500    
     74      1     37    180       7.500           7.500    
     75      1     38      1      -7.500          -7.500    
     76      1     38    180       7.500           7.500    
     77      1     39      1      -7.500          -7.500    
     78      1     39    180       7.500           7.500    
     79      1     40      1      -7.500          -7.500    
     80      1     40    180       7.500           7.500    
     81      1     41      1      -7.500          -7.500    
     82      1     41    180       7.500           7.500    
     83      1     42      1      -7.500          -7.500    
     84      1     42    180       7.500           7.500    
     85      1     43      1      -7.500          -7.500    
     86      1     43    180       7.500           7.500    
     87      1     44      1      -7.500          -7.500    
     88      1     44    180       7.500           7.500    
     89      1     45      1      -7.500          -7.500    
     90      1     45    180       7.500           7.500    
     91      1     46      1      -7.500          -7.500    
     92      1     46    180       7.500           7.500    
     93      1     47      1      -7.500          -7.500    
     94      1     47    180       7.500           7.500    
     95      1     48      1      -7.500          -7.500    
     96      1     48    180       7.500           7.500    
     97      1     49      1      -7.500          -7.500    
     98      1     49    180       7.500           7.500    
     99      1     50      1      -7.500          -7.500    
    100      1     50    180       7.500           7.500    
    101      1     51      1      -7.500          -7.500    
    102      1     51    180       7.500           7.500    
    103      1     52      1      -7.500          -7.500    
    104      1     52    180       7.500           7.500    
    105      1     53      1      -7.500          -7.500    
    106      1     53    180       7.500           7.500    
    107      1     54      1      -7.500          -7.500    
    108      1     54    180       7.500           7.500    
    109      1     55      1      -7.500          -7.500    
    110      1     55    180       7.500           7.500    
    111      1     56      1      -7.500          -7.500    
    112      1     56    180       7.500           7.500    
    113      1     57      1      -7.500          -7.500    
    114      1     57    180       7.500           7.500    
    115      1     58      1      -7.500          -7.500    
    116      1     58    180       7.500           7.500    
    117      1     59      1      -7.500          -7.500    
    118      1     59    180       7.500           7.500    
    119      1     60      1      -7.500          -7.500    
    120      1     60    180       7.500           7.500    
    121      1     61      1      -7.500          -7.500    
    122      1     61    180       7.500           7.500    
    123      1     62      1      -7.500          -7.500    
    124      1     62    180       7.500           7.500    
    125      1     63      1      -7.500          -7.500    
    126      1     63    180       7.500           7.500    
    127      1     64      1      -7.500          -7.500    
    128      1     64    180       7.500           7.500    
    129      1     65      1      -7.500          -7.500    
    130      1     65    180       7.500           7.500    
    131      1     66      1      -7.500          -7.500    
    132      1     66    180       7.500           7.500    
    133      1     67      1      -7.500          -7.500    
    134      1     67    180       7.500           7.500    
    135      1     68      1      -7.500          -7.500    
    136      1     68    180       7.500           7.500    
    137      1     69      1      -7.500          -7.500    
    138      1     69    180       7.500           7.500    
    139      1     70      1      -7.500          -7.500    
    140      1     70    180       7.500           7.500    
    141      1     71      1      -7.500          -7.500    
    142      1     71    180       7.500           7.500    
    143      1     72      1      -7.500          -7.500    
    144      1     72    180       7.500           7.500    
    145      1     73      1      -7.500          -7.500    
    146      1     73    180       7.500           7.500    
    147      1     74      1      -7.500          -7.500    
    148      1     74    180       7.500           7.500    
    149      1     75      1      -7.500          -7.500    
    150      1     75    180       7.500           7.500    
    151      1     76      1      -7.500          -7.500    
    152      1     76    180       7.500           7.500    
    153      1     77      1      -7.500          -7.500    
    154      1     77    180       7.500           7.500    
    155      1     78      1      -7.500          -7.500    
    156      1     78    180       7.500           7.500    
    157      1     79      1      -7.500          -7.500    
    158      1     79    180       7.500           7.500    
    159      1     80      1      -7.500          -7.500    
    160      1     80    180       7.500           7.500    
    161      1     81      1      -7.500          -7.500    
    162      1     81    180       7.500           7.500    
    163      1     82      1      -7.500          -7.500    
    164      1     82    180       7.500           7.500    
    165      1     83      1      -7.500          -7.500    
    166      1     83    180       7.500           7.500    
    167      1     84      1      -7.500          -7.500    
    168      1     84    180       7.500           7.500    
    169      1     85      1      -7.500          -7.500    
    170      1     85    180       7.500           7.500    
    171      1     86      1      -7.500          -7.500    
    172      1     86    180       7.500           7.500    
    173      1     87      1      -7.500          -7.500    
    174      1     87    180       7.500           7.500    
    175      1     88      1      -7.500          -7.500    
    176      1     88    180       7.500           7.500    
    177      1     89      1      -7.500          -7.500    
    178      1     89    180       7.500           7.500    
    179      1     90      1      -7.500          -7.500    
    180      1     90    180       7.500           7.500    
    181      1     91      1      -7.500          -7.500    
    182      1     91    180       7.500           7.500    
    183      1     92      1      -7.500          -7.500    
    184      1     92    180       7.500           7.500    
    185      1     93      1      -7.500          -7.500    
    186      1     93    180       7.500           7.500    
    187      1     94      1      -7.500          -7.500    
    188      1     94    180       7.500           7.500    
    189      1     95      1      -7.500          -7.500    
    190      1     95    180       7.500           7.500    
    191      1     96      1      -7.500          -7.500    
    192      1     96    180       7.500           7.500    
    193      1     97      1      -7.500          -7.500    
    194      1     97    180       7.500           7.500    
    195      1     98      1      -7.500          -7.500    
    196      1     98    180       7.500           7.500    
    197      1     99      1      -7.500          -7.500    
    198      1     99    180       7.500           7.500    
    199      1    100      1      -7.500          -7.500    
    200      1    100    180       7.500           7.500    
    201      1    101      1      -7.500          -7.500    
    202      1    101    180       7.500           7.500    
    203      1    102      1      -7.500          -7.500    
    204      1    102    180       7.500           7.500    
    205      1    103      1      -7.500          -7.500    
    206      1    103    180       7.500           7.500    
    207      1    104      1      -7.500          -7.500    
    208      1    104    180       7.500           7.500    
    209      1    105      1      -7.500          -7.500    
    210      1    105    180       7.500           7.500    
    211      1    106      1      -7.500          -7.500    
    212      1    106    180       7.500           7.500    
    213      1    107      1      -7.500          -7.500    
    214      1    107    180       7.500           7.500    
    215      1    108      1      -7.500          -7.500    
    216      1    108    180       7.500           7.500    
    217      1    109      1      -7.500          -7.500    
    218      1    109    180       7.500           7.500    
    219      1    110      1      -7.500          -7.500    
    220      1    110    180       7.500           7.500    
    221      1    111      1      -7.500          -7.500    
    222      1    111    180       7.500           7.500    
    223      1    112      1      -7.500          -7.500    
    224      1    112    180       7.500           7.500    
    225      1    113      1      -7.500          -7.500    
    226      1    113    180       7.500           7.500    
    227      1    114      1      -7.500          -7.500    
    228      1    114    180       7.500           7.500    
    229      1    115      1      -7.500          -7.500    
    230      1    115    180       7.500           7.500    
    231      1    116      1      -7.500          -7.500    
    232      1    116    180       7.500           7.500    
    233      1    117      1      -7.500          -7.500    
    234      1    117    180       7.500           7.500    
    235      1    118      1      -7.500          -7.500    
    236      1    118    180       7.500           7.500    
    237      1    119      1      -7.500          -7.500    
    238      1    119    180       7.500           7.500    
    239      1    120      1      -7.500          -7.500    
    240      1    120    180       7.500           7.500    
    241      1    121      1      -7.500          -7.500    
    242      1    121    180       7.500           7.500    
    243      1    122      1      -7.500          -7.500    
    244      1    122    180       7.500           7.500    
    245      1    123      1      -7.500          -7.500    
    246      1    123    180       7.500           7.500    
    247      1    124      1      -7.500          -7.500    
    248      1    124    180       7.500           7.500    
    249      1    125      1      -7.500          -7.500    
    250      1    125    180       7.500           7.500    
    251      1    126      1      -7.500          -7.500    
    252      1    126    180       7.500           7.500    
    253      1    127      1      -7.500          -7.500    
    254      1    127    180       7.500           7.500    
    255      1    128      1      -7.500          -7.500    
    256      1    128    180       7.500           7.500    
    257      1    129      1      -7.500          -7.500    
    258      1    129    180       7.500           7.500    
    259      1    130      1      -7.500          -7.500    
    260      1    130    180       7.500           7.500    
    261      1    131      1      -7.500          -7.500    
    262      1    131    180       7.500           7.500    
    263      1    132      1      -7.500          -7.500    
    264      1    132    180       7.500           7.500    
    265      1    133      1      -7.500          -7.500    
    266      1    133    180       7.500           7.500    
    267      1    134      1      -7.500          -7.500    
    268      1    134    180       7.500           7.500    
    269      1    135      1      -7.500          -7.500    
    270      1    135    180       7.500           7.500    
    271      1    136      1      -7.500          -7.500    
    272      1    136    180       7.500           7.500    
    273      1    137      1      -7.500          -7.500    
    274      1    137    180       7.500           7.500    
    275      1    138      1      -7.500          -7.500    
    276      1    138    180       7.500           7.500    
    277      1    139      1      -7.500          -7.500    
    278      1    139    180       7.500           7.500    
    279      1    140      1      -7.500          -7.500    
    280      1    140    180       7.500           7.500    
    281      1    141      1      -7.500          -7.500    
    282      1    141    180       7.500           7.500    
    283      1    142      1      -7.500          -7.500    
    284      1    142    180       7.500           7.500    
    285      1    143      1      -7.500          -7.500    
    286      1    143    180       7.500           7.500    
    287      1    144      1      -7.500          -7.500    
    288      1    144    180       7.500           7.500    
    289      1    145      1      -7.500          -7.500    
    290      1    145    180       7.500           7.500    
    291      1    146      1      -7.500          -7.500    
    292      1    146    180       7.500           7.500    
    293      1    147      1      -7.500          -7.500    
    294      1    147    180       7.500           7.500    
    295      1    148      1      -7.500          -7.500    
    296      1    148    180       7.500           7.500    
    297      1    149      1      -7.500          -7.500    
    298      1    149    180       7.500           7.500    
    299      1    150      1      -7.500          -7.500    
    300      1    150    180       7.500           7.500    
    301      1    151      1      -7.500          -7.500    
    302      1    151    180       7.500           7.500    
    303      1    152      1      -7.500          -7.500    
    304      1    152    180       7.500           7.500    
    305      1    153      1      -7.500          -7.500    
    306      1    153    180       7.500           7.500    
    307      1    154      1      -7.500          -7.500    
    308      1    154    180       7.500           7.500    
    309      1    155      1      -7.500          -7.500    
    310      1    155    180       7.500           7.500    
    311      1    156      1      -7.500          -7.500    
    312      1    156    180       7.500           7.500    
    313      1    157      1      -7.500          -7.500    
    314      1    157    180       7.500           7.500    
    315      1    158      1      -7.500          -7.500    
    316      1    158    180       7.500           7.500    
    317      1    159      1      -7.500          -7.500    
    318      1    159    180       7.500           7.500    
    319      1    160      1      -7.500          -7.500    
    320      1    160    180       7.500           7.500    
    321      1    161      1      -7.500          -7.500    
    322      1    161    180       7.500           7.500    
    323      1    162      1      -7.500          -7.500    
    324      1    162    180       7.500           7.500    
    325      1    163      1      -7.500          -7.500    
    326      1    163    180       7.500           7.500    
    327      1    164      1      -7.500          -7.500    
    328      1    164    180       7.500           7.500    
    329      1    165      1      -7.500          -7.500    
    330      1    165    180       7.500           7.500    
    331      1    166      1      -7.500          -7.500    
    332      1    166    180       7.500           7.500    
    333      1    167      1      -7.500          -7.500    
    334      1    167    180       7.500           7.500    
    335      1    168      1      -7.500          -7.500    
    336      1    168    180       7.500           7.500    
    337      1    169      1      -7.500          -7.500    
    338      1    169    180       7.500           7.500    
    339      1    170      1      -7.500          -7.500    
    340      1    170    180       7.500           7.500    
    341      1    171      1      -7.500          -7.500    
    342      1    171    180       7.500           7.500    
    343      1    172      1      -7.500          -7.500    
    344      1    172    180       7.500           7.500    
    345      1    173      1      -7.500          -7.500    
    346      1    173    180       7.500           7.500    
    347      1    174      1      -7.500          -7.500    
    348      1    174    180       7.500           7.500    
    349      1    175      1      -7.500          -7.500    
    350      1    175    180       7.500           7.500    
    351      1    176      1      -7.500          -7.500    
    352      1    176    180       7.500           7.500    
    353      1    177      1      -7.500          -7.500    
    354      1    177    180       7.500           7.500    
    355      1    178      1      -7.500          -7.500    
    356      1    178    180       7.500           7.500    
    357      1    179      1      -7.500          -7.500    
    358      1    179    180       7.500           7.500    
    359      1    180      1      -7.500          -7.500    
    360      1    180    180       7.500           7.500    


    360 TIME-VARIANT SPECIFIED-HEAD CELLS
 
 SOLVING FOR HEAD 

 OUTPUT CONTROL FOR STRESS PERIOD    3   TIME STEP    1
    SAVE HEAD FOR ALL LAYERS

 SAVING SATURATED THICKNESS AND FLOW TERMS ON UNIT   54 FOR MT3DMS
 BY THE LINK-MT3DMS PACKAGE V7 AT TIME STEP    1, STRESS PERIOD    3


 HEAD WILL BE SAVED ON UNIT   51 AT END OF TIME STEP    1, STRESS PERIOD    3
1
  VOLUMETRIC BUDGET FOR ENTIRE MODEL AT END OF TIME STEP    1, STRESS PERIOD   3
  ------------------------------------------------------------------------------

     CUMULATIVE VOLUMES      L**3       RATES FOR THIS TIME STEP      L**3/T
     ------------------                 ------------------------

           IN:                                      IN:
           ---                                      ---
             STORAGE =      532405.1250               STORAGE =        4557.2471
       CONSTANT HEAD =      570524.3125         CONSTANT HEAD =        5248.9292
               WELLS =      137427.6406                 WELLS =        1993.9376

            TOTAL IN =     1240357.0000              TOTAL IN =       11800.1133

          OUT:                                     OUT:
          ----                                     ----
             STORAGE =      668375.4375               STORAGE =        6519.7393
       CONSTANT HEAD =      571981.5625         CONSTANT HEAD =        5280.3750
               WELLS =           0.0000                 WELLS =           0.0000

           TOTAL OUT =     1240357.0000             TOTAL OUT =       11800.1143

            IN - OUT =           0.0000              IN - OUT =      -9.7656E-04

 PERCENT DISCREPANCY =           0.00     PERCENT DISCREPANCY =          -0.00






         TIME SUMMARY AT END OF TIME STEP    1 IN STRESS PERIOD    3
                    SECONDS     MINUTES      HOURS       DAYS        YEARS
                    -----------------------------------------------------------
   TIME STEP LENGTH 2.59200E+06  43200.      720.00      30.000     8.21355E-02
 STRESS PERIOD TIME 2.59200E+06  43200.      720.00      30.000     8.21355E-02
         TOTAL TIME 7.77600E+06 1.29600E+05  2160.0      90.000     0.24641    
1
1
                            STRESS PERIOD NO.    4, LENGTH =   30.00000    
                            -----------------------------------------------

                              NUMBER OF TIME STEPS =     1

                               MULTIPLIER FOR DELT =     1.000

                            INITIAL TIME STEP SIZE =   30.00000    

 WELL NO.  LAYER   ROW   COL   STRESS RATE         
 --------------------------------------------------
      1      1     91     91       1968.    

      1 WELL 

 CHD NO.   LAYER   ROW   COL    START HEAD        END HEAD         
 ------------------------------------------------------------------
      1      1      1      1      -7.500          -7.500    
      2      1      1    180       7.500           7.500    
      3      1      2      1      -7.500          -7.500    
      4      1      2    180       7.500           7.500    
      5      1      3      1      -7.500          -7.500    
      6      1      3    180       7.500           7.500    
      7      1      4      1      -7.500          -7.500    
      8      1      4    180       7.500           7.500    
      9      1      5      1      -7.500          -7.500    
     10      1      5    180       7.500           7.500    
     11      1      6      1      -7.500          -7.500    
     12      1      6    180       7.500           7.500    
     13      1      7      1      -7.500          -7.500    
     14      1      7    180       7.500           7.500    
     15      1      8      1      -7.500          -7.500    
     16      1      8    180       7.500           7.500    
     17      1      9      1      -7.500          -7.500    
     18      1      9    180       7.500           7.500    
     19      1     10      1      -7.500          -7.500    
     20      1     10    180       7.500           7.500    
     21      1     11      1      -7.500          -7.500    
     22      1     11    180       7.500           7.500    
     23      1     12      1      -7.500          -7.500    
     24      1     12    180       7.500           7.500    
     25      1     13      1      -7.500          -7.500    
     26      1     13    180       7.500           7.500    
     27      1     14      1      -7.500          -7.500    
     28      1     14    180       7.500           7.500    
     29      1     15      1      -7.500          -7.500    
     30      1     15    180       7.500           7.500    
     31      1     16      1      -7.500          -7.500    
     32      1     16    180       7.500           7.500    
     33      1     17      1      -7.500          -7.500    
     34      1     17    180       7.500           7.500    
     35      1     18      1      -7.500          -7.500    
     36      1     18    180       7.500           7.500    
     37      1     19      1      -7.500          -7.500    
     38      1     19    180       7.500           7.500    
     39      1     20      1      -7.500          -7.500    
     40      1     20    180       7.500           7.500    
     41      1     21      1      -7.500          -7.500    
     42      1     21    180       7.500           7.500    
     43      1     22      1      -7.500          -7.500    
     44      1     22    180       7.500           7.500    
     45      1     23      1      -7.500          -7.500    
     46      1     23    180       7.500           7.500    
     47      1     24      1      -7.500          -7.500    
     48      1     24    180       7.500           7.500    
     49      1     25      1      -7.500          -7.500    
     50      1     25    180       7.500           7.500    
     51      1     26      1      -7.500          -7.500    
     52      1     26    180       7.500           7.500    
     53      1     27      1      -7.500          -7.500    
     54      1     27    180       7.500           7.500    
     55      1     28      1      -7.500          -7.500    
     56      1     28    180       7.500           7.500    
     57      1     29      1      -7.500          -7.500    
     58      1     29    180       7.500           7.500    
     59      1     30      1      -7.500          -7.500    
     60      1     30    180       7.500           7.500    
     61      1     31      1      -7.500          -7.500    
     62      1     31    180       7.500           7.500    
     63      1     32      1      -7.500          -7.500    
     64      1     32    180       7.500           7.500    
     65      1     33      1      -7.500          -7.500    
     66      1     33    180       7.500           7.500    
     67      1     34      1      -7.500          -7.500    
     68      1     34    180       7.500           7.500    
     69      1     35      1      -7.500          -7.500    
     70      1     35    180       7.500           7.500    
     71      1     36      1      -7.500          -7.500    
     72      1     36    180       7.500           7.500    
     73      1     37      1      -7.500          -7.500    
     74      1     37    180       7.500           7.500    
     75      1     38      1      -7.500          -7.500    
     76      1     38    180       7.500           7.500    
     77      1     39      1      -7.500          -7.500    
     78      1     39    180       7.500           7.500    
     79      1     40      1      -7.500          -7.500    
     80      1     40    180       7.500           7.500    
     81      1     41      1      -7.500          -7.500    
     82      1     41    180       7.500           7.500    
     83      1     42      1      -7.500          -7.500    
     84      1     42    180       7.500           7.500    
     85      1     43      1      -7.500          -7.500    
     86      1     43    180       7.500           7.500    
     87      1     44      1      -7.500          -7.500    
     88      1     44    180       7.500           7.500    
     89      1     45      1      -7.500          -7.500    
     90      1     45    180       7.500           7.500    
     91      1     46      1      -7.500          -7.500    
     92      1     46    180       7.500           7.500    
     93      1     47      1      -7.500          -7.500    
     94      1     47    180       7.500           7.500    
     95      1     48      1      -7.500          -7.500    
     96      1     48    180       7.500           7.500    
     97      1     49      1      -7.500          -7.500    
     98      1     49    180       7.500           7.500    
     99      1     50      1      -7.500          -7.500    
    100      1     50    180       7.500           7.500    
    101      1     51      1      -7.500          -7.500    
    102      1     51    180       7.500           7.500    
    103      1     52      1      -7.500          -7.500    
    104      1     52    180       7.500           7.500    
    105      1     53      1      -7.500          -7.500    
    106      1     53    180       7.500           7.500    
    107      1     54      1      -7.500          -7.500    
    108      1     54    180       7.500           7.500    
    109      1     55      1      -7.500          -7.500    
    110      1     55    180       7.500           7.500    
    111      1     56      1      -7.500          -7.500    
    112      1     56    180       7.500           7.500    
    113      1     57      1      -7.500          -7.500    
    114      1     57    180       7.500           7.500    
    115      1     58      1      -7.500          -7.500    
    116      1     58    180       7.500           7.500    
    117      1     59      1      -7.500          -7.500    
    118      1     59    180       7.500           7.500    
    119      1     60      1      -7.500          -7.500    
    120      1     60    180       7.500           7.500    
    121      1     61      1      -7.500          -7.500    
    122      1     61    180       7.500           7.500    
    123      1     62      1      -7.500          -7.500    
    124      1     62    180       7.500           7.500    
    125      1     63      1      -7.500          -7.500    
    126      1     63    180       7.500           7.500    
    127      1     64      1      -7.500          -7.500    
    128      1     64    180       7.500           7.500    
    129      1     65      1      -7.500          -7.500    
    130      1     65    180       7.500           7.500    
    131      1     66      1      -7.500          -7.500    
    132      1     66    180       7.500           7.500    
    133      1     67      1      -7.500          -7.500    
    134      1     67    180       7.500           7.500    
    135      1     68      1      -7.500          -7.500    
    136      1     68    180       7.500           7.500    
    137      1     69      1      -7.500          -7.500    
    138      1     69    180       7.500           7.500    
    139      1     70      1      -7.500          -7.500    
    140      1     70    180       7.500           7.500    
    141      1     71      1      -7.500          -7.500    
    142      1     71    180       7.500           7.500    
    143      1     72      1      -7.500          -7.500    
    144      1     72    180       7.500           7.500    
    145      1     73      1      -7.500          -7.500    
    146      1     73    180       7.500           7.500    
    147      1     74      1      -7.500          -7.500    
    148      1     74    180       7.500           7.500    
    149      1     75      1      -7.500          -7.500    
    150      1     75    180       7.500           7.500    
    151      1     76      1      -7.500          -7.500    
    152      1     76    180       7.500           7.500    
    153      1     77      1      -7.500          -7.500    
    154      1     77    180       7.500           7.500    
    155      1     78      1      -7.500          -7.500    
    156      1     78    180       7.500           7.500    
    157      1     79      1      -7.500          -7.500    
    158      1     79    180       7.500           7.500    
    159      1     80      1      -7.500          -7.500    
    160      1     80    180       7.500           7.500    
    161      1     81      1      -7.500          -7.500    
    162      1     81    180       7.500           7.500    
    163      1     82      1      -7.500          -7.500    
    164      1     82    180       7.500           7.500    
    165      1     83      1      -7.500          -7.500    
    166      1     83    180       7.500           7.500    
    167      1     84      1      -7.500          -7.500    
    168      1     84    180       7.500           7.500    
    169      1     85      1      -7.500          -7.500    
    170      1     85    180       7.500           7.500    
    171      1     86      1      -7.500          -7.500    
    172      1     86    180       7.500           7.500    
    173      1     87      1      -7.500          -7.500    
    174      1     87    180       7.500           7.500    
    175      1     88      1      -7.500          -7.500    
    176      1     88    180       7.500           7.500    
    177      1     89      1      -7.500          -7.500    
    178      1     89    180       7.500           7.500    
    179      1     90      1      -7.500          -7.500    
    180      1     90    180       7.500           7.500    
    181      1     91      1      -7.500          -7.500    
    182      1     91    180       7.500           7.500    
    183      1     92      1      -7.500          -7.500    
    184      1     92    180       7.500           7.500    
    185      1     93      1      -7.500          -7.500    
    186      1     93    180       7.500           7.500    
    187      1     94      1      -7.500          -7.500    
    188      1     94    180       7.500           7.500    
    189      1     95      1      -7.500          -7.500    
    190      1     95    180       7.500           7.500    
    191      1     96      1      -7.500          -7.500    
    192      1     96    180       7.500           7.500    
    193      1     97      1      -7.500          -7.500    
    194      1     97    180       7.500           7.500    
    195      1     98      1      -7.500          -7.500    
    196      1     98    180       7.500           7.500    
    197      1     99      1      -7.500          -7.500    
    198      1     99    180       7.500           7.500    
    199      1    100      1      -7.500          -7.500    
    200      1    100    180       7.500           7.500    
    201      1    101      1      -7.500          -7.500    
    202      1    101    180       7.500           7.500    
    203      1    102      1      -7.500          -7.500    
    204      1    102    180       7.500           7.500    
    205      1    103      1      -7.500          -7.500    
    206      1    103    180       7.500           7.500    
    207      1    104      1      -7.500          -7.500    
    208      1    104    180       7.500           7.500    
    209      1    105      1      -7.500          -7.500    
    210      1    105    180       7.500           7.500    
    211      1    106      1      -7.500          -7.500    
    212      1    106    180       7.500           7.500    
    213      1    107      1      -7.500          -7.500    
    214      1    107    180       7.500           7.500    
    215      1    108      1      -7.500          -7.500    
    216      1    108    180       7.500           7.500    
    217      1    109      1      -7.500          -7.500    
    218      1    109    180       7.500           7.500    
    219      1    110      1      -7.500          -7.500    
    220      1    110    180       7.500           7.500    
    221      1    111      1      -7.500          -7.500    
    222      1    111    180       7.500           7.500    
    223      1    112      1      -7.500          -7.500    
    224      1    112    180       7.500           7.500    
    225      1    113      1      -7.500          -7.500    
    226      1    113    180       7.500           7.500    
    227      1    114      1      -7.500          -7.500    
    228      1    114    180       7.500           7.500    
    229      1    115      1      -7.500          -7.500    
    230      1    115    180       7.500           7.500    
    231      1    116      1      -7.500          -7.500    
    232      1    116    180       7.500           7.500    
    233      1    117      1      -7.500          -7.500    
    234      1    117    180       7.500           7.500    
    235      1    118      1      -7.500          -7.500    
    236      1    118    180       7.500           7.500    
    237      1    119      1      -7.500          -7.500    
    238      1    119    180       7.500           7.500    
    239      1    120      1      -7.500          -7.500    
    240      1    120    180       7.500           7.500    
    241      1    121      1      -7.500          -7.500    
    242      1    121    180       7.500           7.500    
    243      1    122      1      -7.500          -7.500    
    244      1    122    180       7.500           7.500    
    245      1    123      1      -7.500          -7.500    
    246      1    123    180       7.500           7.500    
    247      1    124      1      -7.500          -7.500    
    248      1    124    180       7.500           7.500    
    249      1    125      1      -7.500          -7.500    
    250      1    125    180       7.500           7.500    
    251      1    126      1      -7.500          -7.500    
    252      1    126    180       7.500           7.500    
    253      1    127      1      -7.500          -7.500    
    254      1    127    180       7.500           7.500    
    255      1    128      1      -7.500          -7.500    
    256      1    128    180       7.500           7.500    
    257      1    129      1      -7.500          -7.500    
    258      1    129    180       7.500           7.500    
    259      1    130      1      -7.500          -7.500    
    260      1    130    180       7.500           7.500    
    261      1    131      1      -7.500          -7.500    
    262      1    131    180       7.500           7.500    
    263      1    132      1      -7.500          -7.500    
    264      1    132    180       7.500           7.500    
    265      1    133      1      -7.500          -7.500    
    266      1    133    180       7.500           7.500    
    267      1    134      1      -7.500          -7.500    
    268      1    134    180       7.500           7.500    
    269      1    135      1      -7.500          -7.500    
    270      1    135    180       7.500           7.500    
    271      1    136      1      -7.500          -7.500    
    272      1    136    180       7.500           7.500    
    273      1    137      1      -7.500          -7.500    
    274      1    137    180       7.500           7.500    
    275      1    138      1      -7.500          -7.500    
    276      1    138    180       7.500           7.500    
    277      1    139      1      -7.500          -7.500    
    278      1    139    180       7.500           7.500    
    279      1    140      1      -7.500          -7.500    
    280      1    140    180       7.500           7.500    
    281      1    141      1      -7.500          -7.500    
    282      1    141    180       7.500           7.500    
    283      1    142      1      -7.500          -7.500    
    284      1    142    180       7.500           7.500    
    285      1    143      1      -7.500          -7.500    
    286      1    143    180       7.500           7.500    
    287      1    144      1      -7.500          -7.500    
    288      1    144    180       7.500           7.500    
    289      1    145      1      -7.500          -7.500    
    290      1    145    180       7.500           7.500    
    291      1    146      1      -7.500          -7.500    
    292      1    146    180       7.500           7.500    
    293      1    147      1      -7.500          -7.500    
    294      1    147    180       7.500           7.500    
    295      1    148      1      -7.500          -7.500    
    296      1    148    180       7.500           7.500    
    297      1    149      1      -7.500          -7.500    
    298      1    149    180       7.500           7.500    
    299      1    150      1      -7.500          -7.500    
    300      1    150    180       7.500           7.500    
    301      1    151      1      -7.500          -7.500    
    302      1    151    180       7.500           7.500    
    303      1    152      1      -7.500          -7.500    
    304      1    152    180       7.500           7.500    
    305      1    153      1      -7.500          -7.500    
    306      1    153    180       7.500           7.500    
    307      1    154      1      -7.500          -7.500    
    308      1    154    180       7.500           7.500    
    309      1    155      1      -7.500          -7.500    
    310      1    155    180       7.500           7.500    
    311      1    156      1      -7.500          -7.500    
    312      1    156    180       7.500           7.500    
    313      1    157      1      -7.500          -7.500    
    314      1    157    180       7.500           7.500    
    315      1    158      1      -7.500          -7.500    
    316      1    158    180       7.500           7.500    
    317      1    159      1      -7.500          -7.500    
    318      1    159    180       7.500           7.500    
    319      1    160      1      -7.500          -7.500    
    320      1    160    180       7.500           7.500    
    321      1    161      1      -7.500          -7.500    
    322      1    161    180       7.500           7.500    
    323      1    162      1      -7.500          -7.500    
    324      1    162    180       7.500           7.500    
    325      1    163      1      -7.500          -7.500    
    326      1    163    180       7.500           7.500    
    327      1    164      1      -7.500          -7.500    
    328      1    164    180       7.500           7.500    
    329      1    165      1      -7.500          -7.500    
    330      1    165    180       7.500           7.500    
    331      1    166      1      -7.500          -7.500    
    332      1    166    180       7.500           7.500    
    333      1    167      1      -7.500          -7.500    
    334      1    167    180       7.500           7.500    
    335      1    168      1      -7.500          -7.500    
    336      1    168    180       7.500           7.500    
    337      1    169      1      -7.500          -7.500    
    338      1    169    180       7.500           7.500    
    339      1    170      1      -7.500          -7.500    
    340      1    170    180       7.500           7.500    
    341      1    171      1      -7.500          -7.500    
    342      1    171    180       7.500           7.500    
    343      1    172      1      -7.500          -7.500    
    344      1    172    180       7.500           7.500    
    345      1    173      1      -7.500          -7.500    
    346      1    173    180       7.500           7.500    
    347      1    174      1      -7.500          -7.500    
    348      1    174    180       7.500           7.500    
    349      1    175      1      -7.500          -7.500    
    350      1    175    180       7.500           7.500    
    351      1    176      1      -7.500          -7.500    
    352      1    176    180       7.500           7.500    
    353      1    177      1      -7.500          -7.500    
    354      1    177    180       7.500           7.500    
    355      1    178      1      -7.500          -7.500    
    356      1    178    180       7.500           7.500    
    357      1    179      1      -7.500          -7.500    
    358      1    179    180       7.500           7.500    
    359      1    180      1      -7.500          -7.500    
    360      1    180    180       7.500           7.500    


    360 TIME-VARIANT SPECIFIED-HEAD CELLS
 
 SOLVING FOR HEAD 

 OUTPUT CONTROL FOR STRESS PERIOD    4   TIME STEP    1
    SAVE HEAD FOR ALL LAYERS

 SAVING SATURATED THICKNESS AND FLOW TERMS ON UNIT   54 FOR MT3DMS
 BY THE LINK-MT3DMS PACKAGE V7 AT TIME STEP    1, STRESS PERIOD    4


 HEAD WILL BE SAVED ON UNIT   51 AT END OF TIME STEP    1, STRESS PERIOD    4
1
  VOLUMETRIC BUDGET FOR ENTIRE MODEL AT END OF TIME STEP    1, STRESS PERIOD   4
  ------------------------------------------------------------------------------

     CUMULATIVE VOLUMES      L**3       RATES FOR THIS TIME STEP      L**3/T
     ------------------                 ------------------------

           IN:                                      IN:
           ---                                      ---
             STORAGE =      641076.2500               STORAGE =        3622.3713
       CONSTANT HEAD =      708147.8750         CONSTANT HEAD =        4587.4512
               WELLS =      196464.1250                 WELLS =        1967.8831

            TOTAL IN =     1545688.2500              TOTAL IN =       10177.7051

          OUT:                                     OUT:
          ----                                     ----
             STORAGE =      834304.6250               STORAGE =        5530.9731
       CONSTANT HEAD =      711383.5000         CONSTANT HEAD =        4646.7324
               WELLS =           0.0000                 WELLS =           0.0000

           TOTAL OUT =     1545688.1250             TOTAL OUT =       10177.7051

            IN - OUT =           0.1250              IN - OUT =           0.0000

 PERCENT DISCREPANCY =           0.00     PERCENT DISCREPANCY =           0.00






         TIME SUMMARY AT END OF TIME STEP    1 IN STRESS PERIOD    4
                    SECONDS     MINUTES      HOURS       DAYS        YEARS
                    -----------------------------------------------------------
   TIME STEP LENGTH 2.59200E+06  43200.      720.00      30.000     8.21355E-02
 STRESS PERIOD TIME 2.59200E+06  43200.      720.00      30.000     8.21355E-02
         TOTAL TIME 1.03680E+07 1.72800E+05  2880.0      120.00     0.32854    
1
1
                            STRESS PERIOD NO.    5, LENGTH =   30.00000    
                            -----------------------------------------------

                              NUMBER OF TIME STEPS =     1

                               MULTIPLIER FOR DELT =     1.000

                            INITIAL TIME STEP SIZE =   30.00000    

 WELL NO.  LAYER   ROW   COL   STRESS RATE         
 --------------------------------------------------
      1      1     91     91      -1306.    

      1 WELL 

 CHD NO.   LAYER   ROW   COL    START HEAD        END HEAD         
 ------------------------------------------------------------------
      1      1      1      1      -7.500          -7.500    
      2      1      1    180       7.500           7.500    
      3      1      2      1      -7.500          -7.500    
      4      1      2    180       7.500           7.500    
      5      1      3      1      -7.500          -7.500    
      6      1      3    180       7.500           7.500    
      7      1      4      1      -7.500          -7.500    
      8      1      4    180       7.500           7.500    
      9      1      5      1      -7.500          -7.500    
     10      1      5    180       7.500           7.500    
     11      1      6      1      -7.500          -7.500    
     12      1      6    180       7.500           7.500    
     13      1      7      1      -7.500          -7.500    
     14      1      7    180       7.500           7.500    
     15      1      8      1      -7.500          -7.500    
     16      1      8    180       7.500           7.500    
     17      1      9      1      -7.500          -7.500    
     18      1      9    180       7.500           7.500    
     19      1     10      1      -7.500          -7.500    
     20      1     10    180       7.500           7.500    
     21      1     11      1      -7.500          -7.500    
     22      1     11    180       7.500           7.500    
     23      1     12      1      -7.500          -7.500    
     24      1     12    180       7.500           7.500    
     25      1     13      1      -7.500          -7.500    
     26      1     13    180       7.500           7.500    
     27      1     14      1      -7.500          -7.500    
     28      1     14    180       7.500           7.500    
     29      1     15      1      -7.500          -7.500    
     30      1     15    180       7.500           7.500    
     31      1     16      1      -7.500          -7.500    
     32      1     16    180       7.500           7.500    
     33      1     17      1      -7.500          -7.500    
     34      1     17    180       7.500           7.500    
     35      1     18      1      -7.500          -7.500    
     36      1     18    180       7.500           7.500    
     37      1     19      1      -7.500          -7.500    
     38      1     19    180       7.500           7.500    
     39      1     20      1      -7.500          -7.500    
     40      1     20    180       7.500           7.500    
     41      1     21      1      -7.500          -7.500    
     42      1     21    180       7.500           7.500    
     43      1     22      1      -7.500          -7.500    
     44      1     22    180       7.500           7.500    
     45      1     23      1      -7.500          -7.500    
     46      1     23    180       7.500           7.500    
     47      1     24      1      -7.500          -7.500    
     48      1     24    180       7.500           7.500    
     49      1     25      1      -7.500          -7.500    
     50      1     25    180       7.500           7.500    
     51      1     26      1      -7.500          -7.500    
     52      1     26    180       7.500           7.500    
     53      1     27      1      -7.500          -7.500    
     54      1     27    180       7.500           7.500    
     55      1     28      1      -7.500          -7.500    
     56      1     28    180       7.500           7.500    
     57      1     29      1      -7.500          -7.500    
     58      1     29    180       7.500           7.500    
     59      1     30      1      -7.500          -7.500    
     60      1     30    180       7.500           7.500    
     61      1     31      1      -7.500          -7.500    
     62      1     31    180       7.500           7.500    
     63      1     32      1      -7.500          -7.500    
     64      1     32    180       7.500           7.500    
     65      1     33      1      -7.500          -7.500    
     66      1     33    180       7.500           7.500    
     67      1     34      1      -7.500          -7.500    
     68      1     34    180       7.500           7.500    
     69      1     35      1      -7.500          -7.500    
     70      1     35    180       7.500           7.500    
     71      1     36      1      -7.500          -7.500    
     72      1     36    180       7.500           7.500    
     73      1     37      1      -7.500          -7.500    
     74      1     37    180       7.500           7.500    
     75      1     38      1      -7.500          -7.500    
     76      1     38    180       7.500           7.500    
     77      1     39      1      -7.500          -7.500    
     78      1     39    180       7.500           7.500    
     79      1     40      1      -7.500          -7.500    
     80      1     40    180       7.500           7.500    
     81      1     41      1      -7.500          -7.500    
     82      1     41    180       7.500           7.500    
     83      1     42      1      -7.500          -7.500    
     84      1     42    180       7.500           7.500    
     85      1     43      1      -7.500          -7.500    
     86      1     43    180       7.500           7.500    
     87      1     44      1      -7.500          -7.500    
     88      1     44    180       7.500           7.500    
     89      1     45      1      -7.500          -7.500    
     90      1     45    180       7.500           7.500    
     91      1     46      1      -7.500          -7.500    
     92      1     46    180       7.500           7.500    
     93      1     47      1      -7.500          -7.500    
     94      1     47    180       7.500           7.500    
     95      1     48      1      -7.500          -7.500    
     96      1     48    180       7.500           7.500    
     97      1     49      1      -7.500          -7.500    
     98      1     49    180       7.500           7.500    
     99      1     50      1      -7.500          -7.500    
    100      1     50    180       7.500           7.500    
    101      1     51      1      -7.500          -7.500    
    102      1     51    180       7.500           7.500    
    103      1     52      1      -7.500          -7.500    
    104      1     52    180       7.500           7.500    
    105      1     53      1      -7.500          -7.500    
    106      1     53    180       7.500           7.500    
    107      1     54      1      -7.500          -7.500    
    108      1     54    180       7.500           7.500    
    109      1     55      1      -7.500          -7.500    
    110      1     55    180       7.500           7.500    
    111      1     56      1      -7.500          -7.500    
    112      1     56    180       7.500           7.500    
    113      1     57      1      -7.500          -7.500    
    114      1     57    180       7.500           7.500    
    115      1     58      1      -7.500          -7.500    
    116      1     58    180       7.500           7.500    
    117      1     59      1      -7.500          -7.500    
    118      1     59    180       7.500           7.500    
    119      1     60      1      -7.500          -7.500    
    120      1     60    180       7.500           7.500    
    121      1     61      1      -7.500          -7.500    
    122      1     61    180       7.500           7.500    
    123      1     62      1      -7.500          -7.500    
    124      1     62    180       7.500           7.500    
    125      1     63      1      -7.500          -7.500    
    126      1     63    180       7.500           7.500    
    127      1     64      1      -7.500          -7.500    
    128      1     64    180       7.500           7.500    
    129      1     65      1      -7.500          -7.500    
    130      1     65    180       7.500           7.500    
    131      1     66      1      -7.500          -7.500    
    132      1     66    180       7.500           7.500    
    133      1     67      1      -7.500          -7.500    
    134      1     67    180       7.500           7.500    
    135      1     68      1      -7.500          -7.500    
    136      1     68    180       7.500           7.500    
    137      1     69      1      -7.500          -7.500    
    138      1     69    180       7.500           7.500    
    139      1     70      1      -7.500          -7.500    
    140      1     70    180       7.500           7.500    
    141      1     71      1      -7.500          -7.500    
    142      1     71    180       7.500           7.500    
    143      1     72      1      -7.500          -7.500    
    144      1     72    180       7.500           7.500    
    145      1     73      1      -7.500          -7.500    
    146      1     73    180       7.500           7.500    
    147      1     74      1      -7.500          -7.500    
    148      1     74    180       7.500           7.500    
    149      1     75      1      -7.500          -7.500    
    150      1     75    180       7.500           7.500    
    151      1     76      1      -7.500          -7.500    
    152      1     76    180       7.500           7.500    
    153      1     77      1      -7.500          -7.500    
    154      1     77    180       7.500           7.500    
    155      1     78      1      -7.500          -7.500    
    156      1     78    180       7.500           7.500    
    157      1     79      1      -7.500          -7.500    
    158      1     79    180       7.500           7.500    
    159      1     80      1      -7.500          -7.500    
    160      1     80    180       7.500           7.500    
    161      1     81      1      -7.500          -7.500    
    162      1     81    180       7.500           7.500    
    163      1     82      1      -7.500          -7.500    
    164      1     82    180       7.500           7.500    
    165      1     83      1      -7.500          -7.500    
    166      1     83    180       7.500           7.500    
    167      1     84      1      -7.500          -7.500    
    168      1     84    180       7.500           7.500    
    169      1     85      1      -7.500          -7.500    
    170      1     85    180       7.500           7.500    
    171      1     86      1      -7.500          -7.500    
    172      1     86    180       7.500           7.500    
    173      1     87      1      -7.500          -7.500    
    174      1     87    180       7.500           7.500    
    175      1     88      1      -7.500          -7.500    
    176      1     88    180       7.500           7.500    
    177      1     89      1      -7.500          -7.500    
    178      1     89    180       7.500           7.500    
    179      1     90      1      -7.500          -7.500    
    180      1     90    180       7.500           7.500    
    181      1     91      1      -7.500          -7.500    
    182      1     91    180       7.500           7.500    
    183      1     92      1      -7.500          -7.500    
    184      1     92    180       7.500           7.500    
    185      1     93      1      -7.500          -7.500    
    186      1     93    180       7.500           7.500    
    187      1     94      1      -7.500          -7.500    
    188      1     94    180       7.500           7.500    
    189      1     95      1      -7.500          -7.500    
    190      1     95    180       7.500           7.500    
    191      1     96      1      -7.500          -7.500    
    192      1     96    180       7.500           7.500    
    193      1     97      1      -7.500          -7.500    
    194      1     97    180       7.500           7.500    
    195      1     98      1      -7.500          -7.500    
    196      1     98    180       7.500           7.500    
    197      1     99      1      -7.500          -7.500    
    198      1     99    180       7.500           7.500    
    199      1    100      1      -7.500          -7.500    
    200      1    100    180       7.500           7.500    
    201      1    101      1      -7.500          -7.500    
    202      1    101    180       7.500           7.500    
    203      1    102      1      -7.500          -7.500    
    204      1    102    180       7.500           7.500    
    205      1    103      1      -7.500          -7.500    
    206      1    103    180       7.500           7.500    
    207      1    104      1      -7.500          -7.500    
    208      1    104    180       7.500           7.500    
    209      1    105      1      -7.500          -7.500    
    210      1    105    180       7.500           7.500    
    211      1    106      1      -7.500          -7.500    
    212      1    106    180       7.500           7.500    
    213      1    107      1      -7.500          -7.500    
    214      1    107    180       7.500           7.500    
    215      1    108      1      -7.500          -7.500    
    216      1    108    180       7.500           7.500    
    217      1    109      1      -7.500          -7.500    
    218      1    109    180       7.500           7.500    
    219      1    110      1      -7.500          -7.500    
    220      1    110    180       7.500           7.500    
    221      1    111      1      -7.500          -7.500    
    222      1    111    180       7.500           7.500    
    223      1    112      1      -7.500          -7.500    
    224      1    112    180       7.500           7.500    
    225      1    113      1      -7.500          -7.500    
    226      1    113    180       7.500           7.500    
    227      1    114      1      -7.500          -7.500    
    228      1    114    180       7.500           7.500    
    229      1    115      1      -7.500          -7.500    
    230      1    115    180       7.500           7.500    
    231      1    116      1      -7.500          -7.500    
    232      1    116    180       7.500           7.500    
    233      1    117      1      -7.500          -7.500    
    234      1    117    180       7.500           7.500    
    235      1    118      1      -7.500          -7.500    
    236      1    118    180       7.500           7.500    
    237      1    119      1      -7.500          -7.500    
    238      1    119    180       7.500           7.500    
    239      1    120      1      -7.500          -7.500    
    240      1    120    180       7.500           7.500    
    241      1    121      1      -7.500          -7.500    
    242      1    121    180       7.500           7.500    
    243      1    122      1      -7.500          -7.500    
    244      1    122    180       7.500           7.500    
    245      1    123      1      -7.500          -7.500    
    246      1    123    180       7.500           7.500    
    247      1    124      1      -7.500          -7.500    
    248      1    124    180       7.500           7.500    
    249      1    125      1      -7.500          -7.500    
    250      1    125    180       7.500           7.500    
    251      1    126      1      -7.500          -7.500    
    252      1    126    180       7.500           7.500    
    253      1    127      1      -7.500          -7.500    
    254      1    127    180       7.500           7.500    
    255      1    128      1      -7.500          -7.500    
    256      1    128    180       7.500           7.500    
    257      1    129      1      -7.500          -7.500    
    258      1    129    180       7.500           7.500    
    259      1    130      1      -7.500          -7.500    
    260      1    130    180       7.500           7.500    
    261      1    131      1      -7.500          -7.500    
    262      1    131    180       7.500           7.500    
    263      1    132      1      -7.500          -7.500    
    264      1    132    180       7.500           7.500    
    265      1    133      1      -7.500          -7.500    
    266      1    133    180       7.500           7.500    
    267      1    134      1      -7.500          -7.500    
    268      1    134    180       7.500           7.500    
    269      1    135      1      -7.500          -7.500    
    270      1    135    180       7.500           7.500    
    271      1    136      1      -7.500          -7.500    
    272      1    136    180       7.500           7.500    
    273      1    137      1      -7.500          -7.500    
    274      1    137    180       7.500           7.500    
    275      1    138      1      -7.500          -7.500    
    276      1    138    180       7.500           7.500    
    277      1    139      1      -7.500          -7.500    
    278      1    139    180       7.500           7.500    
    279      1    140      1      -7.500          -7.500    
    280      1    140    180       7.500           7.500    
    281      1    141      1      -7.500          -7.500    
    282      1    141    180       7.500           7.500    
    283      1    142      1      -7.500          -7.500    
    284      1    142    180       7.500           7.500    
    285      1    143      1      -7.500          -7.500    
    286      1    143    180       7.500           7.500    
    287      1    144      1      -7.500          -7.500    
    288      1    144    180       7.500           7.500    
    289      1    145      1      -7.500          -7.500    
    290      1    145    180       7.500           7.500    
    291      1    146      1      -7.500          -7.500    
    292      1    146    180       7.500           7.500    
    293      1    147      1      -7.500          -7.500    
    294      1    147    180       7.500           7.500    
    295      1    148      1      -7.500          -7.500    
    296      1    148    180       7.500           7.500    
    297      1    149      1      -7.500          -7.500    
    298      1    149    180       7.500           7.500    
    299      1    150      1      -7.500          -7.500    
    300      1    150    180       7.500           7.500    
    301      1    151      1      -7.500          -7.500    
    302      1    151    180       7.500           7.500    
    303      1    152      1      -7.500          -7.500    
    304      1    152    180       7.500           7.500    
    305      1    153      1      -7.500          -7.500    
    306      1    153    180       7.500           7.500    
    307      1    154      1      -7.500          -7.500    
    308      1    154    180       7.500           7.500    
    309      1    155      1      -7.500          -7.500    
    310      1    155    180       7.500           7.500    
    311      1    156      1      -7.500          -7.500    
    312      1    156    180       7.500           7.500    
    313      1    157      1      -7.500          -7.500    
    314      1    157    180       7.500           7.500    
    315      1    158      1      -7.500          -7.500    
    316      1    158    180       7.500           7.500    
    317      1    159      1      -7.500          -7.500    
    318      1    159    180       7.500           7.500    
    319      1    160      1      -7.500          -7.500    
    320      1    160    180       7.500           7.500    
    321      1    161      1      -7.500          -7.500    
    322      1    161    180       7.500           7.500    
    323      1    162      1      -7.500          -7.500    
    324      1    162    180       7.500           7.500    
    325      1    163      1      -7.500          -7.500    
    326      1    163    180       7.500           7.500    
    327      1    164      1      -7.500          -7.500    
    328      1    164    180       7.500           7.500    
    329      1    165      1      -7.500          -7.500    
    330      1    165    180       7.500           7.500    
    331      1    166      1      -7.500          -7.500    
    332      1    166    180       7.500           7.500    
    333      1    167      1      -7.500          -7.500    
    334      1    167    180       7.500           7.500    
    335      1    168      1      -7.500          -7.500    
    336      1    168    180       7.500           7.500    
    337      1    169      1      -7.500          -7.500    
    338      1    169    180       7.500           7.500    
    339      1    170      1      -7.500          -7.500    
    340      1    170    180       7.500           7.500    
    341      1    171      1      -7.500          -7.500    
    342      1    171    180       7.500           7.500    
    343      1    172      1      -7.500          -7.500    
    344      1    172    180       7.500           7.500    
    345      1    173      1      -7.500          -7.500    
    346      1    173    180       7.500           7.500    
    347      1    174      1      -7.500          -7.500    
    348      1    174    180       7.500           7.500    
    349      1    175      1      -7.500          -7.500    
    350      1    175    180       7.500           7.500    
    351      1    176      1      -7.500          -7.500    
    352      1    176    180       7.500           7.500    
    353      1    177      1      -7.500          -7.500    
    354      1    177    180       7.500           7.500    
    355      1    178      1      -7.500          -7.500    
    356      1    178    180       7.500           7.500    
    357      1    179      1      -7.500          -7.500    
    358      1    179    180       7.500           7.500    
    359      1    180      1      -7.500          -7.500    
    360      1    180    180       7.500           7.500    


    360 TIME-VARIANT SPECIFIED-HEAD CELLS
 
 SOLVING FOR HEAD 

 OUTPUT CONTROL FOR STRESS PERIOD    5   TIME STEP    1
    SAVE HEAD FOR ALL LAYERS

 SAVING SATURATED THICKNESS AND FLOW TERMS ON UNIT   54 FOR MT3DMS
 BY THE LINK-MT3DMS PACKAGE V7 AT TIME STEP    1, STRESS PERIOD    5


 HEAD WILL BE SAVED ON UNIT   51 AT END OF TIME STEP    1, STRESS PERIOD    5
1
  VOLUMETRIC BUDGET FOR ENTIRE MODEL AT END OF TIME STEP    1, STRESS PERIOD   5
  ------------------------------------------------------------------------------

     CUMULATIVE VOLUMES      L**3       RATES FOR THIS TIME STEP      L**3/T
     ------------------                 ------------------------

           IN:                                      IN:
           ---                                      ---
             STORAGE =      794861.8750               STORAGE =        5126.1875
       CONSTANT HEAD =      831167.2500         CONSTANT HEAD =        4100.6460
               WELLS =      196464.1250                 WELLS =           0.0000

            TOTAL IN =     1822493.2500              TOTAL IN =        9226.8340

          OUT:                                     OUT:
          ----                                     ----
             STORAGE =      946251.5625               STORAGE =        3731.5642
       CONSTANT HEAD =      837070.1875         CONSTANT HEAD =        4189.5571
               WELLS =       39171.3594                 WELLS =        1305.7120

           TOTAL OUT =     1822493.1250             TOTAL OUT =        9226.8330

            IN - OUT =           0.1250              IN - OUT =       9.7656E-04

 PERCENT DISCREPANCY =           0.00     PERCENT DISCREPANCY =           0.00






         TIME SUMMARY AT END OF TIME STEP    1 IN STRESS PERIOD    5
                    SECONDS     MINUTES      HOURS       DAYS        YEARS
                    -----------------------------------------------------------
   TIME STEP LENGTH 2.59200E+06  43200.      720.00      30.000     8.21355E-02
 STRESS PERIOD TIME 2.59200E+06  43200.      720.00      30.000     8.21355E-02
         TOTAL TIME 1.29600E+07 2.16000E+05  3600.0      150.00     0.41068    
1
1
                            STRESS PERIOD NO.    6, LENGTH =   30.00000    
                            -----------------------------------------------

                              NUMBER OF TIME STEPS =     1

                               MULTIPLIER FOR DELT =     1.000

                            INITIAL TIME STEP SIZE =   30.00000    

 WELL NO.  LAYER   ROW   COL   STRESS RATE         
 --------------------------------------------------
      1      1     91     91       1888.    

      1 WELL 

 CHD NO.   LAYER   ROW   COL    START HEAD        END HEAD         
 ------------------------------------------------------------------
      1      1      1      1      -7.500          -7.500    
      2      1      1    180       7.500           7.500    
      3      1      2      1      -7.500          -7.500    
      4      1      2    180       7.500           7.500    
      5      1      3      1      -7.500          -7.500    
      6      1      3    180       7.500           7.500    
      7      1      4      1      -7.500          -7.500    
      8      1      4    180       7.500           7.500    
      9      1      5      1      -7.500          -7.500    
     10      1      5    180       7.500           7.500    
     11      1      6      1      -7.500          -7.500    
     12      1      6    180       7.500           7.500    
     13      1      7      1      -7.500          -7.500    
     14      1      7    180       7.500           7.500    
     15      1      8      1      -7.500          -7.500    
     16      1      8    180       7.500           7.500    
     17      1      9      1      -7.500          -7.500    
     18      1      9    180       7.500           7.500    
     19      1     10      1      -7.500          -7.500    
     20      1     10    180       7.500           7.500    
     21      1     11      1      -7.500          -7.500    
     22      1     11    180       7.500           7.500    
     23      1     12      1      -7.500          -7.500    
     24      1     12    180       7.500           7.500    
     25      1     13      1      -7.500          -7.500    
     26      1     13    180       7.500           7.500    
     27      1     14      1      -7.500          -7.500    
     28      1     14    180       7.500           7.500    
     29      1     15      1      -7.500          -7.500    
     30      1     15    180       7.500           7.500    
     31      1     16      1      -7.500          -7.500    
     32      1     16    180       7.500           7.500    
     33      1     17      1      -7.500          -7.500    
     34      1     17    180       7.500           7.500    
     35      1     18      1      -7.500          -7.500    
     36      1     18    180       7.500           7.500    
     37      1     19      1      -7.500          -7.500    
     38      1     19    180       7.500           7.500    
     39      1     20      1      -7.500          -7.500    
     40      1     20    180       7.500           7.500    
     41      1     21      1      -7.500          -7.500    
     42      1     21    180       7.500           7.500    
     43      1     22      1      -7.500          -7.500    
     44      1     22    180       7.500           7.500    
     45      1     23      1      -7.500          -7.500    
     46      1     23    180       7.500           7.500    
     47      1     24      1      -7.500          -7.500    
     48      1     24    180       7.500           7.500    
     49      1     25      1      -7.500          -7.500    
     50      1     25    180       7.500           7.500    
     51      1     26      1      -7.500          -7.500    
     52      1     26    180       7.500           7.500    
     53      1     27      1      -7.500          -7.500    
     54      1     27    180       7.500           7.500    
     55      1     28      1      -7.500          -7.500    
     56      1     28    180       7.500           7.500    
     57      1     29      1      -7.500          -7.500    
     58      1     29    180       7.500           7.500    
     59      1     30      1      -7.500          -7.500    
     60      1     30    180       7.500           7.500    
     61      1     31      1      -7.500          -7.500    
     62      1     31    180       7.500           7.500    
     63      1     32      1      -7.500          -7.500    
     64      1     32    180       7.500           7.500    
     65      1     33      1      -7.500          -7.500    
     66      1     33    180       7.500           7.500    
     67      1     34      1      -7.500          -7.500    
     68      1     34    180       7.500           7.500    
     69      1     35      1      -7.500          -7.500    
     70      1     35    180       7.500           7.500    
     71      1     36      1      -7.500          -7.500    
     72      1     36    180       7.500           7.500    
     73      1     37      1      -7.500          -7.500    
     74      1     37    180       7.500           7.500    
     75      1     38      1      -7.500          -7.500    
     76      1     38    180       7.500           7.500    
     77      1     39      1      -7.500          -7.500    
     78      1     39    180       7.500           7.500    
     79      1     40      1      -7.500          -7.500    
     80      1     40    180       7.500           7.500    
     81      1     41      1      -7.500          -7.500    
     82      1     41    180       7.500           7.500    
     83      1     42      1      -7.500          -7.500    
     84      1     42    180       7.500           7.500    
     85      1     43      1      -7.500          -7.500    
     86      1     43    180       7.500           7.500    
     87      1     44      1      -7.500          -7.500    
     88      1     44    180       7.500           7.500    
     89      1     45      1      -7.500          -7.500    
     90      1     45    180       7.500           7.500    
     91      1     46      1      -7.500          -7.500    
     92      1     46    180       7.500           7.500    
     93      1     47      1      -7.500          -7.500    
     94      1     47    180       7.500           7.500    
     95      1     48      1      -7.500          -7.500    
     96      1     48    180       7.500           7.500    
     97      1     49      1      -7.500          -7.500    
     98      1     49    180       7.500           7.500    
     99      1     50      1      -7.500          -7.500    
    100      1     50    180       7.500           7.500    
    101      1     51      1      -7.500          -7.500    
    102      1     51    180       7.500           7.500    
    103      1     52      1      -7.500          -7.500    
    104      1     52    180       7.500           7.500    
    105      1     53      1      -7.500          -7.500    
    106      1     53    180       7.500           7.500    
    107      1     54      1      -7.500          -7.500    
    108      1     54    180       7.500           7.500    
    109      1     55      1      -7.500          -7.500    
    110      1     55    180       7.500           7.500    
    111      1     56      1      -7.500          -7.500    
    112      1     56    180       7.500           7.500    
    113      1     57      1      -7.500          -7.500    
    114      1     57    180       7.500           7.500    
    115      1     58      1      -7.500          -7.500    
    116      1     58    180       7.500           7.500    
    117      1     59      1      -7.500          -7.500    
    118      1     59    180       7.500           7.500    
    119      1     60      1      -7.500          -7.500    
    120      1     60    180       7.500           7.500    
    121      1     61      1      -7.500          -7.500    
    122      1     61    180       7.500           7.500    
    123      1     62      1      -7.500          -7.500    
    124      1     62    180       7.500           7.500    
    125      1     63      1      -7.500          -7.500    
    126      1     63    180       7.500           7.500    
    127      1     64      1      -7.500          -7.500    
    128      1     64    180       7.500           7.500    
    129      1     65      1      -7.500          -7.500    
    130      1     65    180       7.500           7.500    
    131      1     66      1      -7.500          -7.500    
    132      1     66    180       7.500           7.500    
    133      1     67      1      -7.500          -7.500    
    134      1     67    180       7.500           7.500    
    135      1     68      1      -7.500          -7.500    
    136      1     68    180       7.500           7.500    
    137      1     69      1      -7.500          -7.500    
    138      1     69    180       7.500           7.500    
    139      1     70      1      -7.500          -7.500    
    140      1     70    180       7.500           7.500    
    141      1     71      1      -7.500          -7.500    
    142      1     71    180       7.500           7.500    
    143      1     72      1      -7.500          -7.500    
    144      1     72    180       7.500           7.500    
    145      1     73      1      -7.500          -7.500    
    146      1     73    180       7.500           7.500    
    147      1     74      1      -7.500          -7.500    
    148      1     74    180       7.500           7.500    
    149      1     75      1      -7.500          -7.500    
    150      1     75    180       7.500           7.500    
    151      1     76      1      -7.500          -7.500    
    152      1     76    180       7.500           7.500    
    153      1     77      1      -7.500          -7.500    
    154      1     77    180       7.500           7.500    
    155      1     78      1      -7.500          -7.500    
    156      1     78    180       7.500           7.500    
    157      1     79      1      -7.500          -7.500    
    158      1     79    180       7.500           7.500    
    159      1     80      1      -7.500          -7.500    
    160      1     80    180       7.500           7.500    
    161      1     81      1      -7.500          -7.500    
    162      1     81    180       7.500           7.500    
    163      1     82      1      -7.500          -7.500    
    164      1     82    180       7.500           7.500    
    165      1     83      1      -7.500          -7.500    
    166      1     83    180       7.500           7.500    
    167      1     84      1      -7.500          -7.500    
    168      1     84    180       7.500           7.500    
    169      1     85      1      -7.500          -7.500    
    170      1     85    180       7.500           7.500    
    171      1     86      1      -7.500          -7.500    
    172      1     86    180       7.500           7.500    
    173      1     87      1      -7.500          -7.500    
    174      1     87    180       7.500           7.500    
    175      1     88      1      -7.500          -7.500    
    176      1     88    180       7.500           7.500    
    177      1     89      1      -7.500          -7.500    
    178      1     89    180       7.500           7.500    
    179      1     90      1      -7.500          -7.500    
    180      1     90    180       7.500           7.500    
    181      1     91      1      -7.500          -7.500    
    182      1     91    180       7.500           7.500    
    183      1     92      1      -7.500          -7.500    
    184      1     92    180       7.500           7.500    
    185      1     93      1      -7.500          -7.500    
    186      1     93    180       7.500           7.500    
    187      1     94      1      -7.500          -7.500    
    188      1     94    180       7.500           7.500    
    189      1     95      1      -7.500          -7.500    
    190      1     95    180       7.500           7.500    
    191      1     96      1      -7.500          -7.500    
    192      1     96    180       7.500           7.500    
    193      1     97      1      -7.500          -7.500    
    194      1     97    180       7.500           7.500    
    195      1     98      1      -7.500          -7.500    
    196      1     98    180       7.500           7.500    
    197      1     99      1      -7.500          -7.500    
    198      1     99    180       7.500           7.500    
    199      1    100      1      -7.500          -7.500    
    200      1    100    180       7.500           7.500    
    201      1    101      1      -7.500          -7.500    
    202      1    101    180       7.500           7.500    
    203      1    102      1      -7.500          -7.500    
    204      1    102    180       7.500           7.500    
    205      1    103      1      -7.500          -7.500    
    206      1    103    180       7.500           7.500    
    207      1    104      1      -7.500          -7.500    
    208      1    104    180       7.500           7.500    
    209      1    105      1      -7.500          -7.500    
    210      1    105    180       7.500           7.500    
    211      1    106      1      -7.500          -7.500    
    212      1    106    180       7.500           7.500    
    213      1    107      1      -7.500          -7.500    
    214      1    107    180       7.500           7.500    
    215      1    108      1      -7.500          -7.500    
    216      1    108    180       7.500           7.500    
    217      1    109      1      -7.500          -7.500    
    218      1    109    180       7.500           7.500    
    219      1    110      1      -7.500          -7.500    
    220      1    110    180       7.500           7.500    
    221      1    111      1      -7.500          -7.500    
    222      1    111    180       7.500           7.500    
    223      1    112      1      -7.500          -7.500    
    224      1    112    180       7.500           7.500    
    225      1    113      1      -7.500          -7.500    
    226      1    113    180       7.500           7.500    
    227      1    114      1      -7.500          -7.500    
    228      1    114    180       7.500           7.500    
    229      1    115      1      -7.500          -7.500    
    230      1    115    180       7.500           7.500    
    231      1    116      1      -7.500          -7.500    
    232      1    116    180       7.500           7.500    
    233      1    117      1      -7.500          -7.500    
    234      1    117    180       7.500           7.500    
    235      1    118      1      -7.500          -7.500    
    236      1    118    180       7.500           7.500    
    237      1    119      1      -7.500          -7.500    
    238      1    119    180       7.500           7.500    
    239      1    120      1      -7.500          -7.500    
    240      1    120    180       7.500           7.500    
    241      1    121      1      -7.500          -7.500    
    242      1    121    180       7.500           7.500    
    243      1    122      1      -7.500          -7.500    
    244      1    122    180       7.500           7.500    
    245      1    123      1      -7.500          -7.500    
    246      1    123    180       7.500           7.500    
    247      1    124      1      -7.500          -7.500    
    248      1    124    180       7.500           7.500    
    249      1    125      1      -7.500          -7.500    
    250      1    125    180       7.500           7.500    
    251      1    126      1      -7.500          -7.500    
    252      1    126    180       7.500           7.500    
    253      1    127      1      -7.500          -7.500    
    254      1    127    180       7.500           7.500    
    255      1    128      1      -7.500          -7.500    
    256      1    128    180       7.500           7.500    
    257      1    129      1      -7.500          -7.500    
    258      1    129    180       7.500           7.500    
    259      1    130      1      -7.500          -7.500    
    260      1    130    180       7.500           7.500    
    261      1    131      1      -7.500          -7.500    
    262      1    131    180       7.500           7.500    
    263      1    132      1      -7.500          -7.500    
    264      1    132    180       7.500           7.500    
    265      1    133      1      -7.500          -7.500    
    266      1    133    180       7.500           7.500    
    267      1    134      1      -7.500          -7.500    
    268      1    134    180       7.500           7.500    
    269      1    135      1      -7.500          -7.500    
    270      1    135    180       7.500           7.500    
    271      1    136      1      -7.500          -7.500    
    272      1    136    180       7.500           7.500    
    273      1    137      1      -7.500          -7.500    
    274      1    137    180       7.500           7.500    
    275      1    138      1      -7.500          -7.500    
    276      1    138    180       7.500           7.500    
    277      1    139      1      -7.500          -7.500    
    278      1    139    180       7.500           7.500    
    279      1    140      1      -7.500          -7.500    
    280      1    140    180       7.500           7.500    
    281      1    141      1      -7.500          -7.500    
    282      1    141    180       7.500           7.500    
    283      1    142      1      -7.500          -7.500    
    284      1    142    180       7.500           7.500    
    285      1    143      1      -7.500          -7.500    
    286      1    143    180       7.500           7.500    
    287      1    144      1      -7.500          -7.500    
    288      1    144    180       7.500           7.500    
    289      1    145      1      -7.500          -7.500    
    290      1    145    180       7.500           7.500    
    291      1    146      1      -7.500          -7.500    
    292      1    146    180       7.500           7.500    
    293      1    147      1      -7.500          -7.500    
    294      1    147    180       7.500           7.500    
    295      1    148      1      -7.500          -7.500    
    296      1    148    180       7.500           7.500    
    297      1    149      1      -7.500          -7.500    
    298      1    149    180       7.500           7.500    
    299      1    150      1      -7.500          -7.500    
    300      1    150    180       7.500           7.500    
    301      1    151      1      -7.500          -7.500    
    302      1    151    180       7.500           7.500    
    303      1    152      1      -7.500          -7.500    
    304      1    152    180       7.500           7.500    
    305      1    153      1      -7.500          -7.500    
    306      1    153    180       7.500           7.500    
    307      1    154      1      -7.500          -7.500    
    308      1    154    180       7.500           7.500    
    309      1    155      1      -7.500          -7.500    
    310      1    155    180       7.500           7.500    
    311      1    156      1      -7.500          -7.500    
    312      1    156    180       7.500           7.500    
    313      1    157      1      -7.500          -7.500    
    314      1    157    180       7.500           7.500    
    315      1    158      1      -7.500          -7.500    
    316      1    158    180       7.500           7.500    
    317      1    159      1      -7.500          -7.500    
    318      1    159    180       7.500           7.500    
    319      1    160      1      -7.500          -7.500    
    320      1    160    180       7.500           7.500    
    321      1    161      1      -7.500          -7.500    
    322      1    161    180       7.500           7.500    
    323      1    162      1      -7.500          -7.500    
    324      1    162    180       7.500           7.500    
    325      1    163      1      -7.500          -7.500    
    326      1    163    180       7.500           7.500    
    327      1    164      1      -7.500          -7.500    
    328      1    164    180       7.500           7.500    
    329      1    165      1      -7.500          -7.500    
    330      1    165    180       7.500           7.500    
    331      1    166      1      -7.500          -7.500    
    332      1    166    180       7.500           7.500    
    333      1    167      1      -7.500          -7.500    
    334      1    167    180       7.500           7.500    
    335      1    168      1      -7.500          -7.500    
    336      1    168    180       7.500           7.500    
    337      1    169      1      -7.500          -7.500    
    338      1    169    180       7.500           7.500    
    339      1    170      1      -7.500          -7.500    
    340      1    170    180       7.500           7.500    
    341      1    171      1      -7.500          -7.500    
    342      1    171    180       7.500           7.500    
    343      1    172      1      -7.500          -7.500    
    344      1    172    180       7.500           7.500    
    345      1    173      1      -7.500          -7.500    
    346      1    173    180       7.500           7.500    
    347      1    174      1      -7.500          -7.500    
    348      1    174    180       7.500           7.500    
    349      1    175      1      -7.500          -7.500    
    350      1    175    180       7.500           7.500    
    351      1    176      1      -7.500          -7.500    
    352      1    176    180       7.500           7.500    
    353      1    177      1      -7.500          -7.500    
    354      1    177    180       7.500           7.500    
    355      1    178      1      -7.500          -7.500    
    356      1    178    180       7.500           7.500    
    357      1    179      1      -7.500          -7.500    
    358      1    179    180       7.500           7.500    
    359      1    180      1      -7.500          -7.500    
    360      1    180    180       7.500           7.500    


    360 TIME-VARIANT SPECIFIED-HEAD CELLS
 
 SOLVING FOR HEAD 

 OUTPUT CONTROL FOR STRESS PERIOD    6   TIME STEP    1
    SAVE HEAD FOR ALL LAYERS

 SAVING SATURATED THICKNESS AND FLOW TERMS ON UNIT   54 FOR MT3DMS
 BY THE LINK-MT3DMS PACKAGE V7 AT TIME STEP    1, STRESS PERIOD    6


 HEAD WILL BE SAVED ON UNIT   51 AT END OF TIME STEP    1, STRESS PERIOD    6
1
  VOLUMETRIC BUDGET FOR ENTIRE MODEL AT END OF TIME STEP    1, STRESS PERIOD   6
  ------------------------------------------------------------------------------

     CUMULATIVE VOLUMES      L**3       RATES FOR THIS TIME STEP      L**3/T
     ------------------                 ------------------------

           IN:                                      IN:
           ---                                      ---
             STORAGE =      873649.2500               STORAGE =        2626.2463
       CONSTANT HEAD =      943030.6250         CONSTANT HEAD =        3728.7791
               WELLS =      253103.5469                 WELLS =        1887.9807

            TOTAL IN =     2069783.3750              TOTAL IN =        8243.0059

          OUT:                                     OUT:
          ----                                     ----
             STORAGE =     1078102.2500               STORAGE =        4395.0234
       CONSTANT HEAD =      952509.6875         CONSTANT HEAD =        3847.9829
               WELLS =       39171.3594                 WELLS =           0.0000

           TOTAL OUT =     2069783.2500             TOTAL OUT =        8243.0059

            IN - OUT =           0.1250              IN - OUT =           0.0000

 PERCENT DISCREPANCY =           0.00     PERCENT DISCREPANCY =           0.00






         TIME SUMMARY AT END OF TIME STEP    1 IN STRESS PERIOD    6
                    SECONDS     MINUTES      HOURS       DAYS        YEARS
                    -----------------------------------------------------------
   TIME STEP LENGTH 2.59200E+06  43200.      720.00      30.000     8.21355E-02
 STRESS PERIOD TIME 2.59200E+06  43200.      720.00      30.000     8.21355E-02
         TOTAL TIME 1.55520E+07 2.59200E+05  4320.0      180.00     0.49281    
1
1
                            STRESS PERIOD NO.    7, LENGTH =   30.00000    
                            -----------------------------------------------

                              NUMBER OF TIME STEPS =     1

                               MULTIPLIER FOR DELT =     1.000

                            INITIAL TIME STEP SIZE =   30.00000    

 WELL NO.  LAYER   ROW   COL   STRESS RATE         
 --------------------------------------------------
      1      1     91     91       1922.    

      1 WELL 

 CHD NO.   LAYER   ROW   COL    START HEAD        END HEAD         
 ------------------------------------------------------------------
      1      1      1      1      -7.500          -7.500    
      2      1      1    180       7.500           7.500    
      3      1      2      1      -7.500          -7.500    
      4      1      2    180       7.500           7.500    
      5      1      3      1      -7.500          -7.500    
      6      1      3    180       7.500           7.500    
      7      1      4      1      -7.500          -7.500    
      8      1      4    180       7.500           7.500    
      9      1      5      1      -7.500          -7.500    
     10      1      5    180       7.500           7.500    
     11      1      6      1      -7.500          -7.500    
     12      1      6    180       7.500           7.500    
     13      1      7      1      -7.500          -7.500    
     14      1      7    180       7.500           7.500    
     15      1      8      1      -7.500          -7.500    
     16      1      8    180       7.500           7.500    
     17      1      9      1      -7.500          -7.500    
     18      1      9    180       7.500           7.500    
     19      1     10      1      -7.500          -7.500    
     20      1     10    180       7.500           7.500    
     21      1     11      1      -7.500          -7.500    
     22      1     11    180       7.500           7.500    
     23      1     12      1      -7.500          -7.500    
     24      1     12    180       7.500           7.500    
     25      1     13      1      -7.500          -7.500    
     26      1     13    180       7.500           7.500    
     27      1     14      1      -7.500          -7.500    
     28      1     14    180       7.500           7.500    
     29      1     15      1      -7.500          -7.500    
     30      1     15    180       7.500           7.500    
     31      1     16      1      -7.500          -7.500    
     32      1     16    180       7.500           7.500    
     33      1     17      1      -7.500          -7.500    
     34      1     17    180       7.500           7.500    
     35      1     18      1      -7.500          -7.500    
     36      1     18    180       7.500           7.500    
     37      1     19      1      -7.500          -7.500    
     38      1     19    180       7.500           7.500    
     39      1     20      1      -7.500          -7.500    
     40      1     20    180       7.500           7.500    
     41      1     21      1      -7.500          -7.500    
     42      1     21    180       7.500           7.500    
     43      1     22      1      -7.500          -7.500    
     44      1     22    180       7.500           7.500    
     45      1     23      1      -7.500          -7.500    
     46      1     23    180       7.500           7.500    
     47      1     24      1      -7.500          -7.500    
     48      1     24    180       7.500           7.500    
     49      1     25      1      -7.500          -7.500    
     50      1     25    180       7.500           7.500    
     51      1     26      1      -7.500          -7.500    
     52      1     26    180       7.500           7.500    
     53      1     27      1      -7.500          -7.500    
     54      1     27    180       7.500           7.500    
     55      1     28      1      -7.500          -7.500    
     56      1     28    180       7.500           7.500    
     57      1     29      1      -7.500          -7.500    
     58      1     29    180       7.500           7.500    
     59      1     30      1      -7.500          -7.500    
     60      1     30    180       7.500           7.500    
     61      1     31      1      -7.500          -7.500    
     62      1     31    180       7.500           7.500    
     63      1     32      1      -7.500          -7.500    
     64      1     32    180       7.500           7.500    
     65      1     33      1      -7.500          -7.500    
     66      1     33    180       7.500           7.500    
     67      1     34      1      -7.500          -7.500    
     68      1     34    180       7.500           7.500    
     69      1     35      1      -7.500          -7.500    
     70      1     35    180       7.500           7.500    
     71      1     36      1      -7.500          -7.500    
     72      1     36    180       7.500           7.500    
     73      1     37      1      -7.500          -7.500    
     74      1     37    180       7.500           7.500    
     75      1     38      1      -7.500          -7.500    
     76      1     38    180       7.500           7.500    
     77      1     39      1      -7.500          -7.500    
     78      1     39    180       7.500           7.500    
     79      1     40      1      -7.500          -7.500    
     80      1     40    180       7.500           7.500    
     81      1     41      1      -7.500          -7.500    
     82      1     41    180       7.500           7.500    
     83      1     42      1      -7.500          -7.500    
     84      1     42    180       7.500           7.500    
     85      1     43      1      -7.500          -7.500    
     86      1     43    180       7.500           7.500    
     87      1     44      1      -7.500          -7.500    
     88      1     44    180       7.500           7.500    
     89      1     45      1      -7.500          -7.500    
     90      1     45    180       7.500           7.500    
     91      1     46      1      -7.500          -7.500    
     92      1     46    180       7.500           7.500    
     93      1     47      1      -7.500          -7.500    
     94      1     47    180       7.500           7.500    
     95      1     48      1      -7.500          -7.500    
     96      1     48    180       7.500           7.500    
     97      1     49      1      -7.500          -7.500    
     98      1     49    180       7.500           7.500    
     99      1     50      1      -7.500          -7.500    
    100      1     50    180       7.500           7.500    
    101      1     51      1      -7.500          -7.500    
    102      1     51    180       7.500           7.500    
    103      1     52      1      -7.500          -7.500    
    104      1     52    180       7.500           7.500    
    105      1     53      1      -7.500          -7.500    
    106      1     53    180       7.500           7.500    
    107      1     54      1      -7.500          -7.500    
    108      1     54    180       7.500           7.500    
    109      1     55      1      -7.500          -7.500    
    110      1     55    180       7.500           7.500    
    111      1     56      1      -7.500          -7.500    
    112      1     56    180       7.500           7.500    
    113      1     57      1      -7.500          -7.500    
    114      1     57    180       7.500           7.500    
    115      1     58      1      -7.500          -7.500    
    116      1     58    180       7.500           7.500    
    117      1     59      1      -7.500          -7.500    
    118      1     59    180       7.500           7.500    
    119      1     60      1      -7.500          -7.500    
    120      1     60    180       7.500           7.500    
    121      1     61      1      -7.500          -7.500    
    122      1     61    180       7.500           7.500    
    123      1     62      1      -7.500          -7.500    
    124      1     62    180       7.500           7.500    
    125      1     63      1      -7.500          -7.500    
    126      1     63    180       7.500           7.500    
    127      1     64      1      -7.500          -7.500    
    128      1     64    180       7.500           7.500    
    129      1     65      1      -7.500          -7.500    
    130      1     65    180       7.500           7.500    
    131      1     66      1      -7.500          -7.500    
    132      1     66    180       7.500           7.500    
    133      1     67      1      -7.500          -7.500    
    134      1     67    180       7.500           7.500    
    135      1     68      1      -7.500          -7.500    
    136      1     68    180       7.500           7.500    
    137      1     69      1      -7.500          -7.500    
    138      1     69    180       7.500           7.500    
    139      1     70      1      -7.500          -7.500    
    140      1     70    180       7.500           7.500    
    141      1     71      1      -7.500          -7.500    
    142      1     71    180       7.500           7.500    
    143      1     72      1      -7.500          -7.500    
    144      1     72    180       7.500           7.500    
    145      1     73      1      -7.500          -7.500    
    146      1     73    180       7.500           7.500    
    147      1     74      1      -7.500          -7.500    
    148      1     74    180       7.500           7.500    
    149      1     75      1      -7.500          -7.500    
    150      1     75    180       7.500           7.500    
    151      1     76      1      -7.500          -7.500    
    152      1     76    180       7.500           7.500    
    153      1     77      1      -7.500          -7.500    
    154      1     77    180       7.500           7.500    
    155      1     78      1      -7.500          -7.500    
    156      1     78    180       7.500           7.500    
    157      1     79      1      -7.500          -7.500    
    158      1     79    180       7.500           7.500    
    159      1     80      1      -7.500          -7.500    
    160      1     80    180       7.500           7.500    
    161      1     81      1      -7.500          -7.500    
    162      1     81    180       7.500           7.500    
    163      1     82      1      -7.500          -7.500    
    164      1     82    180       7.500           7.500    
    165      1     83      1      -7.500          -7.500    
    166      1     83    180       7.500           7.500    
    167      1     84      1      -7.500          -7.500    
    168      1     84    180       7.500           7.500    
    169      1     85      1      -7.500          -7.500    
    170      1     85    180       7.500           7.500    
    171      1     86      1      -7.500          -7.500    
    172      1     86    180       7.500           7.500    
    173      1     87      1      -7.500          -7.500    
    174      1     87    180       7.500           7.500    
    175      1     88      1      -7.500          -7.500    
    176      1     88    180       7.500           7.500    
    177      1     89      1      -7.500          -7.500    
    178      1     89    180       7.500           7.500    
    179      1     90      1      -7.500          -7.500    
    180      1     90    180       7.500           7.500    
    181      1     91      1      -7.500          -7.500    
    182      1     91    180       7.500           7.500    
    183      1     92      1      -7.500          -7.500    
    184      1     92    180       7.500           7.500    
    185      1     93      1      -7.500          -7.500    
    186      1     93    180       7.500           7.500    
    187      1     94      1      -7.500          -7.500    
    188      1     94    180       7.500           7.500    
    189      1     95      1      -7.500          -7.500    
    190      1     95    180       7.500           7.500    
    191      1     96      1      -7.500          -7.500    
    192      1     96    180       7.500           7.500    
    193      1     97      1      -7.500          -7.500    
    194      1     97    180       7.500           7.500    
    195      1     98      1      -7.500          -7.500    
    196      1     98    180       7.500           7.500    
    197      1     99      1      -7.500          -7.500    
    198      1     99    180       7.500           7.500    
    199      1    100      1      -7.500          -7.500    
    200      1    100    180       7.500           7.500    
    201      1    101      1      -7.500          -7.500    
    202      1    101    180       7.500           7.500    
    203      1    102      1      -7.500          -7.500    
    204      1    102    180       7.500           7.500    
    205      1    103      1      -7.500          -7.500    
    206      1    103    180       7.500           7.500    
    207      1    104      1      -7.500          -7.500    
    208      1    104    180       7.500           7.500    
    209      1    105      1      -7.500          -7.500    
    210      1    105    180       7.500           7.500    
    211      1    106      1      -7.500          -7.500    
    212      1    106    180       7.500           7.500    
    213      1    107      1      -7.500          -7.500    
    214      1    107    180       7.500           7.500    
    215      1    108      1      -7.500          -7.500    
    216      1    108    180       7.500           7.500    
    217      1    109      1      -7.500          -7.500    
    218      1    109    180       7.500           7.500    
    219      1    110      1      -7.500          -7.500    
    220      1    110    180       7.500           7.500    
    221      1    111      1      -7.500          -7.500    
    222      1    111    180       7.500           7.500    
    223      1    112      1      -7.500          -7.500    
    224      1    112    180       7.500           7.500    
    225      1    113      1      -7.500          -7.500    
    226      1    113    180       7.500           7.500    
    227      1    114      1      -7.500          -7.500    
    228      1    114    180       7.500           7.500    
    229      1    115      1      -7.500          -7.500    
    230      1    115    180       7.500           7.500    
    231      1    116      1      -7.500          -7.500    
    232      1    116    180       7.500           7.500    
    233      1    117      1      -7.500          -7.500    
    234      1    117    180       7.500           7.500    
    235      1    118      1      -7.500          -7.500    
    236      1    118    180       7.500           7.500    
    237      1    119      1      -7.500          -7.500    
    238      1    119    180       7.500           7.500    
    239      1    120      1      -7.500          -7.500    
    240      1    120    180       7.500           7.500    
    241      1    121      1      -7.500          -7.500    
    242      1    121    180       7.500           7.500    
    243      1    122      1      -7.500          -7.500    
    244      1    122    180       7.500           7.500    
    245      1    123      1      -7.500          -7.500    
    246      1    123    180       7.500           7.500    
    247      1    124      1      -7.500          -7.500    
    248      1    124    180       7.500           7.500    
    249      1    125      1      -7.500          -7.500    
    250      1    125    180       7.500           7.500    
    251      1    126      1      -7.500          -7.500    
    252      1    126    180       7.500           7.500    
    253      1    127      1      -7.500          -7.500    
    254      1    127    180       7.500           7.500    
    255      1    128      1      -7.500          -7.500    
    256      1    128    180       7.500           7.500    
    257      1    129      1      -7.500          -7.500    
    258      1    129    180       7.500           7.500    
    259      1    130      1      -7.500          -7.500    
    260      1    130    180       7.500           7.500    
    261      1    131      1      -7.500          -7.500    
    262      1    131    180       7.500           7.500    
    263      1    132      1      -7.500          -7.500    
    264      1    132    180       7.500           7.500    
    265      1    133      1      -7.500          -7.500    
    266      1    133    180       7.500           7.500    
    267      1    134      1      -7.500          -7.500    
    268      1    134    180       7.500           7.500    
    269      1    135      1      -7.500          -7.500    
    270      1    135    180       7.500           7.500    
    271      1    136      1      -7.500          -7.500    
    272      1    136    180       7.500           7.500    
    273      1    137      1      -7.500          -7.500    
    274      1    137    180       7.500           7.500    
    275      1    138      1      -7.500          -7.500    
    276      1    138    180       7.500           7.500    
    277      1    139      1      -7.500          -7.500    
    278      1    139    180       7.500           7.500    
    279      1    140      1      -7.500          -7.500    
    280      1    140    180       7.500           7.500    
    281      1    141      1      -7.500          -7.500    
    282      1    141    180       7.500           7.500    
    283      1    142      1      -7.500          -7.500    
    284      1    142    180       7.500           7.500    
    285      1    143      1      -7.500          -7.500    
    286      1    143    180       7.500           7.500    
    287      1    144      1      -7.500          -7.500    
    288      1    144    180       7.500           7.500    
    289      1    145      1      -7.500          -7.500    
    290      1    145    180       7.500           7.500    
    291      1    146      1      -7.500          -7.500    
    292      1    146    180       7.500           7.500    
    293      1    147      1      -7.500          -7.500    
    294      1    147    180       7.500           7.500    
    295      1    148      1      -7.500          -7.500    
    296      1    148    180       7.500           7.500    
    297      1    149      1      -7.500          -7.500    
    298      1    149    180       7.500           7.500    
    299      1    150      1      -7.500          -7.500    
    300      1    150    180       7.500           7.500    
    301      1    151      1      -7.500          -7.500    
    302      1    151    180       7.500           7.500    
    303      1    152      1      -7.500          -7.500    
    304      1    152    180       7.500           7.500    
    305      1    153      1      -7.500          -7.500    
    306      1    153    180       7.500           7.500    
    307      1    154      1      -7.500          -7.500    
    308      1    154    180       7.500           7.500    
    309      1    155      1      -7.500          -7.500    
    310      1    155    180       7.500           7.500    
    311      1    156      1      -7.500          -7.500    
    312      1    156    180       7.500           7.500    
    313      1    157      1      -7.500          -7.500    
    314      1    157    180       7.500           7.500    
    315      1    158      1      -7.500          -7.500    
    316      1    158    180       7.500           7.500    
    317      1    159      1      -7.500          -7.500    
    318      1    159    180       7.500           7.500    
    319      1    160      1      -7.500          -7.500    
    320      1    160    180       7.500           7.500    
    321      1    161      1      -7.500          -7.500    
    322      1    161    180       7.500           7.500    
    323      1    162      1      -7.500          -7.500    
    324      1    162    180       7.500           7.500    
    325      1    163      1      -7.500          -7.500    
    326      1    163    180       7.500           7.500    
    327      1    164      1      -7.500          -7.500    
    328      1    164    180       7.500           7.500    
    329      1    165      1      -7.500          -7.500    
    330      1    165    180       7.500           7.500    
    331      1    166      1      -7.500          -7.500    
    332      1    166    180       7.500           7.500    
    333      1    167      1      -7.500          -7.500    
    334      1    167    180       7.500           7.500    
    335      1    168      1      -7.500          -7.500    
    336      1    168    180       7.500           7.500    
    337      1    169      1      -7.500          -7.500    
    338      1    169    180       7.500           7.500    
    339      1    170      1      -7.500          -7.500    
    340      1    170    180       7.500           7.500    
    341      1    171      1      -7.500          -7.500    
    342      1    171    180       7.500           7.500    
    343      1    172      1      -7.500          -7.500    
    344      1    172    180       7.500           7.500    
    345      1    173      1      -7.500          -7.500    
    346      1    173    180       7.500           7.500    
    347      1    174      1      -7.500          -7.500    
    348      1    174    180       7.500           7.500    
    349      1    175      1      -7.500          -7.500    
    350      1    175    180       7.500           7.500    
    351      1    176      1      -7.500          -7.500    
    352      1    176    180       7.500           7.500    
    353      1    177      1      -7.500          -7.500    
    354      1    177    180       7.500           7.500    
    355      1    178      1      -7.500          -7.500    
    356      1    178    180       7.500           7.500    
    357      1    179      1      -7.500          -7.500    
    358      1    179    180       7.500           7.500    
    359      1    180      1      -7.500          -7.500    
    360      1    180    180       7.500           7.500    


    360 TIME-VARIANT SPECIFIED-HEAD CELLS
 
 SOLVING FOR HEAD 

 OUTPUT CONTROL FOR STRESS PERIOD    7   TIME STEP    1
    SAVE HEAD FOR ALL LAYERS

 SAVING SATURATED THICKNESS AND FLOW TERMS ON UNIT   54 FOR MT3DMS
 BY THE LINK-MT3DMS PACKAGE V7 AT TIME STEP    1, STRESS PERIOD    7


 HEAD WILL BE SAVED ON UNIT   51 AT END OF TIME STEP    1, STRESS PERIOD    7
1
  VOLUMETRIC BUDGET FOR ENTIRE MODEL AT END OF TIME STEP    1, STRESS PERIOD   7
  ------------------------------------------------------------------------------

     CUMULATIVE VOLUMES      L**3       RATES FOR THIS TIME STEP      L**3/T
     ------------------                 ------------------------

           IN:                                      IN:
           ---                                      ---
             STORAGE =      935539.2500               STORAGE =        2062.9993
       CONSTANT HEAD =     1046066.8125         CONSTANT HEAD =        3434.5393
               WELLS =      310749.7812                 WELLS =        1921.5414

            TOTAL IN =     2292356.0000              TOTAL IN =        7419.0801

          OUT:                                     OUT:
          ----                                     ----
             STORAGE =     1193068.2500               STORAGE =        3832.2014
       CONSTANT HEAD =     1060116.0000         CONSTANT HEAD =        3586.8784
               WELLS =       39171.3594                 WELLS =           0.0000

           TOTAL OUT =     2292355.5000             TOTAL OUT =        7419.0801

            IN - OUT =           0.5000              IN - OUT =           0.0000

 PERCENT DISCREPANCY =           0.00     PERCENT DISCREPANCY =           0.00






         TIME SUMMARY AT END OF TIME STEP    1 IN STRESS PERIOD    7
                    SECONDS     MINUTES      HOURS       DAYS        YEARS
                    -----------------------------------------------------------
   TIME STEP LENGTH 2.59200E+06  43200.      720.00      30.000     8.21355E-02
 STRESS PERIOD TIME 2.59200E+06  43200.      720.00      30.000     8.21355E-02
         TOTAL TIME 1.81440E+07 3.02400E+05  5040.0      210.00     0.57495    
1
1
                            STRESS PERIOD NO.    8, LENGTH =   30.00000    
                            -----------------------------------------------

                              NUMBER OF TIME STEPS =     1

                               MULTIPLIER FOR DELT =     1.000

                            INITIAL TIME STEP SIZE =   30.00000    

 WELL NO.  LAYER   ROW   COL   STRESS RATE         
 --------------------------------------------------
      1      1     91     91      -1874.    

      1 WELL 

 CHD NO.   LAYER   ROW   COL    START HEAD        END HEAD         
 ------------------------------------------------------------------
      1      1      1      1      -7.500          -7.500    
      2      1      1    180       7.500           7.500    
      3      1      2      1      -7.500          -7.500    
      4      1      2    180       7.500           7.500    
      5      1      3      1      -7.500          -7.500    
      6      1      3    180       7.500           7.500    
      7      1      4      1      -7.500          -7.500    
      8      1      4    180       7.500           7.500    
      9      1      5      1      -7.500          -7.500    
     10      1      5    180       7.500           7.500    
     11      1      6      1      -7.500          -7.500    
     12      1      6    180       7.500           7.500    
     13      1      7      1      -7.500          -7.500    
     14      1      7    180       7.500           7.500    
     15      1      8      1      -7.500          -7.500    
     16      1      8    180       7.500           7.500    
     17      1      9      1      -7.500          -7.500    
     18      1      9    180       7.500           7.500    
     19      1     10      1      -7.500          -7.500    
     20      1     10    180       7.500           7.500    
     21      1     11      1      -7.500          -7.500    
     22      1     11    180       7.500           7.500    
     23      1     12      1      -7.500          -7.500    
     24      1     12    180       7.500           7.500    
     25      1     13      1      -7.500          -7.500    
     26      1     13    180       7.500           7.500    
     27      1     14      1      -7.500          -7.500    
     28      1     14    180       7.500           7.500    
     29      1     15      1      -7.500          -7.500    
     30      1     15    180       7.500           7.500    
     31      1     16      1      -7.500          -7.500    
     32      1     16    180       7.500           7.500    
     33      1     17      1      -7.500          -7.500    
     34      1     17    180       7.500           7.500    
     35      1     18      1      -7.500          -7.500    
     36      1     18    180       7.500           7.500    
     37      1     19      1      -7.500          -7.500    
     38      1     19    180       7.500           7.500    
     39      1     20      1      -7.500          -7.500    
     40      1     20    180       7.500           7.500    
     41      1     21      1      -7.500          -7.500    
     42      1     21    180       7.500           7.500    
     43      1     22      1      -7.500          -7.500    
     44      1     22    180       7.500           7.500    
     45      1     23      1      -7.500          -7.500    
     46      1     23    180       7.500           7.500    
     47      1     24      1      -7.500          -7.500    
     48      1     24    180       7.500           7.500    
     49      1     25      1      -7.500          -7.500    
     50      1     25    180       7.500           7.500    
     51      1     26      1      -7.500          -7.500    
     52      1     26    180       7.500           7.500    
     53      1     27      1      -7.500          -7.500    
     54      1     27    180       7.500           7.500    
     55      1     28      1      -7.500          -7.500    
     56      1     28    180       7.500           7.500    
     57      1     29      1      -7.500          -7.500    
     58      1     29    180       7.500           7.500    
     59      1     30      1      -7.500          -7.500    
     60      1     30    180       7.500           7.500    
     61      1     31      1      -7.500          -7.500    
     62      1     31    180       7.500           7.500    
     63      1     32      1      -7.500          -7.500    
     64      1     32    180       7.500           7.500    
     65      1     33      1      -7.500          -7.500    
     66      1     33    180       7.500           7.500    
     67      1     34      1      -7.500          -7.500    
     68      1     34    180       7.500           7.500    
     69      1     35      1      -7.500          -7.500    
     70      1     35    180       7.500           7.500    
     71      1     36      1      -7.500          -7.500    
     72      1     36    180       7.500           7.500    
     73      1     37      1      -7.500          -7.500    
     74      1     37    180       7.500           7.500    
     75      1     38      1      -7.500          -7.500    
     76      1     38    180       7.500           7.500    
     77      1     39      1      -7.500          -7.500    
     78      1     39    180       7.500           7.500    
     79      1     40      1      -7.500          -7.500    
     80      1     40    180       7.500           7.500    
     81      1     41      1      -7.500          -7.500    
     82      1     41    180       7.500           7.500    
     83      1     42      1      -7.500          -7.500    
     84      1     42    180       7.500           7.500    
     85      1     43      1      -7.500          -7.500    
     86      1     43    180       7.500           7.500    
     87      1     44      1      -7.500          -7.500    
     88      1     44    180       7.500           7.500    
     89      1     45      1      -7.500          -7.500    
     90      1     45    180       7.500           7.500    
     91      1     46      1      -7.500          -7.500    
     92      1     46    180       7.500           7.500    
     93      1     47      1      -7.500          -7.500    
     94      1     47    180       7.500           7.500    
     95      1     48      1      -7.500          -7.500    
     96      1     48    180       7.500           7.500    
     97      1     49      1      -7.500          -7.500    
     98      1     49    180       7.500           7.500    
     99      1     50      1      -7.500          -7.500    
    100      1     50    180       7.500           7.500    
    101      1     51      1      -7.500          -7.500    
    102      1     51    180       7.500           7.500    
    103      1     52      1      -7.500          -7.500    
    104      1     52    180       7.500           7.500    
    105      1     53      1      -7.500          -7.500    
    106      1     53    180       7.500           7.500    
    107      1     54      1      -7.500          -7.500    
    108      1     54    180       7.500           7.500    
    109      1     55      1      -7.500          -7.500    
    110      1     55    180       7.500           7.500    
    111      1     56      1      -7.500          -7.500    
    112      1     56    180       7.500           7.500    
    113      1     57      1      -7.500          -7.500    
    114      1     57    180       7.500           7.500    
    115      1     58      1      -7.500          -7.500    
    116      1     58    180       7.500           7.500    
    117      1     59      1      -7.500          -7.500    
    118      1     59    180       7.500           7.500    
    119      1     60      1      -7.500          -7.500    
    120      1     60    180       7.500           7.500    
    121      1     61      1      -7.500          -7.500    
    122      1     61    180       7.500           7.500    
    123      1     62      1      -7.500          -7.500    
    124      1     62    180       7.500           7.500    
    125      1     63      1      -7.500          -7.500    
    126      1     63    180       7.500           7.500    
    127      1     64      1      -7.500          -7.500    
    128      1     64    180       7.500           7.500    
    129      1     65      1      -7.500          -7.500    
    130      1     65    180       7.500           7.500    
    131      1     66      1      -7.500          -7.500    
    132      1     66    180       7.500           7.500    
    133      1     67      1      -7.500          -7.500    
    134      1     67    180       7.500           7.500    
    135      1     68      1      -7.500          -7.500    
    136      1     68    180       7.500           7.500    
    137      1     69      1      -7.500          -7.500    
    138      1     69    180       7.500           7.500    
    139      1     70      1      -7.500          -7.500    
    140      1     70    180       7.500           7.500    
    141      1     71      1      -7.500          -7.500    
    142      1     71    180       7.500           7.500    
    143      1     72      1      -7.500          -7.500    
    144      1     72    180       7.500           7.500    
    145      1     73      1      -7.500          -7.500    
    146      1     73    180       7.500           7.500    
    147      1     74      1      -7.500          -7.500    
    148      1     74    180       7.500           7.500    
    149      1     75      1      -7.500          -7.500    
    150      1     75    180       7.500           7.500    
    151      1     76      1      -7.500          -7.500    
    152      1     76    180       7.500           7.500    
    153      1     77      1      -7.500          -7.500    
    154      1     77    180       7.500           7.500    
    155      1     78      1      -7.500          -7.500    
    156      1     78    180       7.500           7.500    
    157      1     79      1      -7.500          -7.500    
    158      1     79    180       7.500           7.500    
    159      1     80      1      -7.500          -7.500    
    160      1     80    180       7.500           7.500    
    161      1     81      1      -7.500          -7.500    
    162      1     81    180       7.500           7.500    
    163      1     82      1      -7.500          -7.500    
    164      1     82    180       7.500           7.500    
    165      1     83      1      -7.500          -7.500    
    166      1     83    180       7.500           7.500    
    167      1     84      1      -7.500          -7.500    
    168      1     84    180       7.500           7.500    
    169      1     85      1      -7.500          -7.500    
    170      1     85    180       7.500           7.500    
    171      1     86      1      -7.500          -7.500    
    172      1     86    180       7.500           7.500    
    173      1     87      1      -7.500          -7.500    
    174      1     87    180       7.500           7.500    
    175      1     88      1      -7.500          -7.500    
    176      1     88    180       7.500           7.500    
    177      1     89      1      -7.500          -7.500    
    178      1     89    180       7.500           7.500    
    179      1     90      1      -7.500          -7.500    
    180      1     90    180       7.500           7.500    
    181      1     91      1      -7.500          -7.500    
    182      1     91    180       7.500           7.500    
    183      1     92      1      -7.500          -7.500    
    184      1     92    180       7.500           7.500    
    185      1     93      1      -7.500          -7.500    
    186      1     93    180       7.500           7.500    
    187      1     94      1      -7.500          -7.500    
    188      1     94    180       7.500           7.500    
    189      1     95      1      -7.500          -7.500    
    190      1     95    180       7.500           7.500    
    191      1     96      1      -7.500          -7.500    
    192      1     96    180       7.500           7.500    
    193      1     97      1      -7.500          -7.500    
    194      1     97    180       7.500           7.500    
    195      1     98      1      -7.500          -7.500    
    196      1     98    180       7.500           7.500    
    197      1     99      1      -7.500          -7.500    
    198      1     99    180       7.500           7.500    
    199      1    100      1      -7.500          -7.500    
    200      1    100    180       7.500           7.500    
    201      1    101      1      -7.500          -7.500    
    202      1    101    180       7.500           7.500    
    203      1    102      1      -7.500          -7.500    
    204      1    102    180       7.500           7.500    
    205      1    103      1      -7.500          -7.500    
    206      1    103    180       7.500           7.500    
    207      1    104      1      -7.500          -7.500    
    208      1    104    180       7.500           7.500    
    209      1    105      1      -7.500          -7.500    
    210      1    105    180       7.500           7.500    
    211      1    106      1      -7.500          -7.500    
    212      1    106    180       7.500           7.500    
    213      1    107      1      -7.500          -7.500    
    214      1    107    180       7.500           7.500    
    215      1    108      1      -7.500          -7.500    
    216      1    108    180       7.500           7.500    
    217      1    109      1      -7.500          -7.500    
    218      1    109    180       7.500           7.500    
    219      1    110      1      -7.500          -7.500    
    220      1    110    180       7.500           7.500    
    221      1    111      1      -7.500          -7.500    
    222      1    111    180       7.500           7.500    
    223      1    112      1      -7.500          -7.500    
    224      1    112    180       7.500           7.500    
    225      1    113      1      -7.500          -7.500    
    226      1    113    180       7.500           7.500    
    227      1    114      1      -7.500          -7.500    
    228      1    114    180       7.500           7.500    
    229      1    115      1      -7.500          -7.500    
    230      1    115    180       7.500           7.500    
    231      1    116      1      -7.500          -7.500    
    232      1    116    180       7.500           7.500    
    233      1    117      1      -7.500          -7.500    
    234      1    117    180       7.500           7.500    
    235      1    118      1      -7.500          -7.500    
    236      1    118    180       7.500           7.500    
    237      1    119      1      -7.500          -7.500    
    238      1    119    180       7.500           7.500    
    239      1    120      1      -7.500          -7.500    
    240      1    120    180       7.500           7.500    
    241      1    121      1      -7.500          -7.500    
    242      1    121    180       7.500           7.500    
    243      1    122      1      -7.500          -7.500    
    244      1    122    180       7.500           7.500    
    245      1    123      1      -7.500          -7.500    
    246      1    123    180       7.500           7.500    
    247      1    124      1      -7.500          -7.500    
    248      1    124    180       7.500           7.500    
    249      1    125      1      -7.500          -7.500    
    250      1    125    180       7.500           7.500    
    251      1    126      1      -7.500          -7.500    
    252      1    126    180       7.500           7.500    
    253      1    127      1      -7.500          -7.500    
    254      1    127    180       7.500           7.500    
    255      1    128      1      -7.500          -7.500    
    256      1    128    180       7.500           7.500    
    257      1    129      1      -7.500          -7.500    
    258      1    129    180       7.500           7.500    
    259      1    130      1      -7.500          -7.500    
    260      1    130    180       7.500           7.500    
    261      1    131      1      -7.500          -7.500    
    262      1    131    180       7.500           7.500    
    263      1    132      1      -7.500          -7.500    
    264      1    132    180       7.500           7.500    
    265      1    133      1      -7.500          -7.500    
    266      1    133    180       7.500           7.500    
    267      1    134      1      -7.500          -7.500    
    268      1    134    180       7.500           7.500    
    269      1    135      1      -7.500          -7.500    
    270      1    135    180       7.500           7.500    
    271      1    136      1      -7.500          -7.500    
    272      1    136    180       7.500           7.500    
    273      1    137      1      -7.500          -7.500    
    274      1    137    180       7.500           7.500    
    275      1    138      1      -7.500          -7.500    
    276      1    138    180       7.500           7.500    
    277      1    139      1      -7.500          -7.500    
    278      1    139    180       7.500           7.500    
    279      1    140      1      -7.500          -7.500    
    280      1    140    180       7.500           7.500    
    281      1    141      1      -7.500          -7.500    
    282      1    141    180       7.500           7.500    
    283      1    142      1      -7.500          -7.500    
    284      1    142    180       7.500           7.500    
    285      1    143      1      -7.500          -7.500    
    286      1    143    180       7.500           7.500    
    287      1    144      1      -7.500          -7.500    
    288      1    144    180       7.500           7.500    
    289      1    145      1      -7.500          -7.500    
    290      1    145    180       7.500           7.500    
    291      1    146      1      -7.500          -7.500    
    292      1    146    180       7.500           7.500    
    293      1    147      1      -7.500          -7.500    
    294      1    147    180       7.500           7.500    
    295      1    148      1      -7.500          -7.500    
    296      1    148    180       7.500           7.500    
    297      1    149      1      -7.500          -7.500    
    298      1    149    180       7.500           7.500    
    299      1    150      1      -7.500          -7.500    
    300      1    150    180       7.500           7.500    
    301      1    151      1      -7.500          -7.500    
    302      1    151    180       7.500           7.500    
    303      1    152      1      -7.500          -7.500    
    304      1    152    180       7.500           7.500    
    305      1    153      1      -7.500          -7.500    
    306      1    153    180       7.500           7.500    
    307      1    154      1      -7.500          -7.500    
    308      1    154    180       7.500           7.500    
    309      1    155      1      -7.500          -7.500    
    310      1    155    180       7.500           7.500    
    311      1    156      1      -7.500          -7.500    
    312      1    156    180       7.500           7.500    
    313      1    157      1      -7.500          -7.500    
    314      1    157    180       7.500           7.500    
    315      1    158      1      -7.500          -7.500    
    316      1    158    180       7.500           7.500    
    317      1    159      1      -7.500          -7.500    
    318      1    159    180       7.500           7.500    
    319      1    160      1      -7.500          -7.500    
    320      1    160    180       7.500           7.500    
    321      1    161      1      -7.500          -7.500    
    322      1    161    180       7.500           7.500    
    323      1    162      1      -7.500          -7.500    
    324      1    162    180       7.500           7.500    
    325      1    163      1      -7.500          -7.500    
    326      1    163    180       7.500           7.500    
    327      1    164      1      -7.500          -7.500    
    328      1    164    180       7.500           7.500    
    329      1    165      1      -7.500          -7.500    
    330      1    165    180       7.500           7.500    
    331      1    166      1      -7.500          -7.500    
    332      1    166    180       7.500           7.500    
    333      1    167      1      -7.500          -7.500    
    334      1    167    180       7.500           7.500    
    335      1    168      1      -7.500          -7.500    
    336      1    168    180       7.500           7.500    
    337      1    169      1      -7.500          -7.500    
    338      1    169    180       7.500           7.500    
    339      1    170      1      -7.500          -7.500    
    340      1    170    180       7.500           7.500    
    341      1    171      1      -7.500          -7.500    
    342      1    171    180       7.500           7.500    
    343      1    172      1      -7.500          -7.500    
    344      1    172    180       7.500           7.500    
    345      1    173      1      -7.500          -7.500    
    346      1    173    180       7.500           7.500    
    347      1    174      1      -7.500          -7.500    
    348      1    174    180       7.500           7.500    
    349      1    175      1      -7.500          -7.500    
    350      1    175    180       7.500           7.500    
    351      1    176      1      -7.500          -7.500    
    352      1    176    180       7.500           7.500    
    353      1    177      1      -7.500          -7.500    
    354      1    177    180       7.500           7.500    
    355      1    178      1      -7.500          -7.500    
    356      1    178    180       7.500           7.500    
    357      1    179      1      -7.500          -7.500    
    358      1    179    180       7.500           7.500    
    359      1    180      1      -7.500          -7.500    
    360      1    180    180       7.500           7.500    


    360 TIME-VARIANT SPECIFIED-HEAD CELLS
 
 SOLVING FOR HEAD 

 OUTPUT CONTROL FOR STRESS PERIOD    8   TIME STEP    1
    SAVE HEAD FOR ALL LAYERS

 SAVING SATURATED THICKNESS AND FLOW TERMS ON UNIT   54 FOR MT3DMS
 BY THE LINK-MT3DMS PACKAGE V7 AT TIME STEP    1, STRESS PERIOD    8


 HEAD WILL BE SAVED ON UNIT   51 AT END OF TIME STEP    1, STRESS PERIOD    8
1
  VOLUMETRIC BUDGET FOR ENTIRE MODEL AT END OF TIME STEP    1, STRESS PERIOD   8
  ------------------------------------------------------------------------------

     CUMULATIVE VOLUMES      L**3       RATES FOR THIS TIME STEP      L**3/T
     ------------------                 ------------------------

           IN:                                      IN:
           ---                                      ---
             STORAGE =     1064185.1250               STORAGE =        4288.1968
       CONSTANT HEAD =     1142033.8750         CONSTANT HEAD =        3198.9001
               WELLS =      310749.7812                 WELLS =           0.0000

            TOTAL IN =     2516968.7500              TOTAL IN =        7487.0967

          OUT:                                     OUT:
          ----                                     ----
             STORAGE =     1260050.1250               STORAGE =        2232.7295
       CONSTANT HEAD =     1161519.5000         CONSTANT HEAD =        3380.1169
               WELLS =       95398.8594                 WELLS =        1874.2501

           TOTAL OUT =     2516968.5000             TOTAL OUT =        7487.0967

            IN - OUT =           0.2500              IN - OUT =           0.0000

 PERCENT DISCREPANCY =           0.00     PERCENT DISCREPANCY =           0.00






         TIME SUMMARY AT END OF TIME STEP    1 IN STRESS PERIOD    8
                    SECONDS     MINUTES      HOURS       DAYS        YEARS
                    -----------------------------------------------------------
   TIME STEP LENGTH 2.59200E+06  43200.      720.00      30.000     8.21355E-02
 STRESS PERIOD TIME 2.59200E+06  43200.      720.00      30.000     8.21355E-02
         TOTAL TIME 2.07360E+07 3.45600E+05  5760.0      240.00     0.65708    
1
1
                            STRESS PERIOD NO.    9, LENGTH =   30.00000    
                            -----------------------------------------------

                              NUMBER OF TIME STEPS =     1

                               MULTIPLIER FOR DELT =     1.000

                            INITIAL TIME STEP SIZE =   30.00000    

 WELL NO.  LAYER   ROW   COL   STRESS RATE         
 --------------------------------------------------
      1      1     91     91       1362.    

      1 WELL 

 CHD NO.   LAYER   ROW   COL    START HEAD        END HEAD         
 ------------------------------------------------------------------
      1      1      1      1      -7.500          -7.500    
      2      1      1    180       7.500           7.500    
      3      1      2      1      -7.500          -7.500    
      4      1      2    180       7.500           7.500    
      5      1      3      1      -7.500          -7.500    
      6      1      3    180       7.500           7.500    
      7      1      4      1      -7.500          -7.500    
      8      1      4    180       7.500           7.500    
      9      1      5      1      -7.500          -7.500    
     10      1      5    180       7.500           7.500    
     11      1      6      1      -7.500          -7.500    
     12      1      6    180       7.500           7.500    
     13      1      7      1      -7.500          -7.500    
     14      1      7    180       7.500           7.500    
     15      1      8      1      -7.500          -7.500    
     16      1      8    180       7.500           7.500    
     17      1      9      1      -7.500          -7.500    
     18      1      9    180       7.500           7.500    
     19      1     10      1      -7.500          -7.500    
     20      1     10    180       7.500           7.500    
     21      1     11      1      -7.500          -7.500    
     22      1     11    180       7.500           7.500    
     23      1     12      1      -7.500          -7.500    
     24      1     12    180       7.500           7.500    
     25      1     13      1      -7.500          -7.500    
     26      1     13    180       7.500           7.500    
     27      1     14      1      -7.500          -7.500    
     28      1     14    180       7.500           7.500    
     29      1     15      1      -7.500          -7.500    
     30      1     15    180       7.500           7.500    
     31      1     16      1      -7.500          -7.500    
     32      1     16    180       7.500           7.500    
     33      1     17      1      -7.500          -7.500    
     34      1     17    180       7.500           7.500    
     35      1     18      1      -7.500          -7.500    
     36      1     18    180       7.500           7.500    
     37      1     19      1      -7.500          -7.500    
     38      1     19    180       7.500           7.500    
     39      1     20      1      -7.500          -7.500    
     40      1     20    180       7.500           7.500    
     41      1     21      1      -7.500          -7.500    
     42      1     21    180       7.500           7.500    
     43      1     22      1      -7.500          -7.500    
     44      1     22    180       7.500           7.500    
     45      1     23      1      -7.500          -7.500    
     46      1     23    180       7.500           7.500    
     47      1     24      1      -7.500          -7.500    
     48      1     24    180       7.500           7.500    
     49      1     25      1      -7.500          -7.500    
     50      1     25    180       7.500           7.500    
     51      1     26      1      -7.500          -7.500    
     52      1     26    180       7.500           7.500    
     53      1     27      1      -7.500          -7.500    
     54      1     27    180       7.500           7.500    
     55      1     28      1      -7.500          -7.500    
     56      1     28    180       7.500           7.500    
     57      1     29      1      -7.500          -7.500    
     58      1     29    180       7.500           7.500    
     59      1     30      1      -7.500          -7.500    
     60      1     30    180       7.500           7.500    
     61      1     31      1      -7.500          -7.500    
     62      1     31    180       7.500           7.500    
     63      1     32      1      -7.500          -7.500    
     64      1     32    180       7.500           7.500    
     65      1     33      1      -7.500          -7.500    
     66      1     33    180       7.500           7.500    
     67      1     34      1      -7.500          -7.500    
     68      1     34    180       7.500           7.500    
     69      1     35      1      -7.500          -7.500    
     70      1     35    180       7.500           7.500    
     71      1     36      1      -7.500          -7.500    
     72      1     36    180       7.500           7.500    
     73      1     37      1      -7.500          -7.500    
     74      1     37    180       7.500           7.500    
     75      1     38      1      -7.500          -7.500    
     76      1     38    180       7.500           7.500    
     77      1     39      1      -7.500          -7.500    
     78      1     39    180       7.500           7.500    
     79      1     40      1      -7.500          -7.500    
     80      1     40    180       7.500           7.500    
     81      1     41      1      -7.500          -7.500    
     82      1     41    180       7.500           7.500    
     83      1     42      1      -7.500          -7.500    
     84      1     42    180       7.500           7.500    
     85      1     43      1      -7.500          -7.500    
     86      1     43    180       7.500           7.500    
     87      1     44      1      -7.500          -7.500    
     88      1     44    180       7.500           7.500    
     89      1     45      1      -7.500          -7.500    
     90      1     45    180       7.500           7.500    
     91      1     46      1      -7.500          -7.500    
     92      1     46    180       7.500           7.500    
     93      1     47      1      -7.500          -7.500    
     94      1     47    180       7.500           7.500    
     95      1     48      1      -7.500          -7.500    
     96      1     48    180       7.500           7.500    
     97      1     49      1      -7.500          -7.500    
     98      1     49    180       7.500           7.500    
     99      1     50      1      -7.500          -7.500    
    100      1     50    180       7.500           7.500    
    101      1     51      1      -7.500          -7.500    
    102      1     51    180       7.500           7.500    
    103      1     52      1      -7.500          -7.500    
    104      1     52    180       7.500           7.500    
    105      1     53      1      -7.500          -7.500    
    106      1     53    180       7.500           7.500    
    107      1     54      1      -7.500          -7.500    
    108      1     54    180       7.500           7.500    
    109      1     55      1      -7.500          -7.500    
    110      1     55    180       7.500           7.500    
    111      1     56      1      -7.500          -7.500    
    112      1     56    180       7.500           7.500    
    113      1     57      1      -7.500          -7.500    
    114      1     57    180       7.500           7.500    
    115      1     58      1      -7.500          -7.500    
    116      1     58    180       7.500           7.500    
    117      1     59      1      -7.500          -7.500    
    118      1     59    180       7.500           7.500    
    119      1     60      1      -7.500          -7.500    
    120      1     60    180       7.500           7.500    
    121      1     61      1      -7.500          -7.500    
    122      1     61    180       7.500           7.500    
    123      1     62      1      -7.500          -7.500    
    124      1     62    180       7.500           7.500    
    125      1     63      1      -7.500          -7.500    
    126      1     63    180       7.500           7.500    
    127      1     64      1      -7.500          -7.500    
    128      1     64    180       7.500           7.500    
    129      1     65      1      -7.500          -7.500    
    130      1     65    180       7.500           7.500    
    131      1     66      1      -7.500          -7.500    
    132      1     66    180       7.500           7.500    
    133      1     67      1      -7.500          -7.500    
    134      1     67    180       7.500           7.500    
    135      1     68      1      -7.500          -7.500    
    136      1     68    180       7.500           7.500    
    137      1     69      1      -7.500          -7.500    
    138      1     69    180       7.500           7.500    
    139      1     70      1      -7.500          -7.500    
    140      1     70    180       7.500           7.500    
    141      1     71      1      -7.500          -7.500    
    142      1     71    180       7.500           7.500    
    143      1     72      1      -7.500          -7.500    
    144      1     72    180       7.500           7.500    
    145      1     73      1      -7.500          -7.500    
    146      1     73    180       7.500           7.500    
    147      1     74      1      -7.500          -7.500    
    148      1     74    180       7.500           7.500    
    149      1     75      1      -7.500          -7.500    
    150      1     75    180       7.500           7.500    
    151      1     76      1      -7.500          -7.500    
    152      1     76    180       7.500           7.500    
    153      1     77      1      -7.500          -7.500    
    154      1     77    180       7.500           7.500    
    155      1     78      1      -7.500          -7.500    
    156      1     78    180       7.500           7.500    
    157      1     79      1      -7.500          -7.500    
    158      1     79    180       7.500           7.500    
    159      1     80      1      -7.500          -7.500    
    160      1     80    180       7.500           7.500    
    161      1     81      1      -7.500          -7.500    
    162      1     81    180       7.500           7.500    
    163      1     82      1      -7.500          -7.500    
    164      1     82    180       7.500           7.500    
    165      1     83      1      -7.500          -7.500    
    166      1     83    180       7.500           7.500    
    167      1     84      1      -7.500          -7.500    
    168      1     84    180       7.500           7.500    
    169      1     85      1      -7.500          -7.500    
    170      1     85    180       7.500           7.500    
    171      1     86      1      -7.500          -7.500    
    172      1     86    180       7.500           7.500    
    173      1     87      1      -7.500          -7.500    
    174      1     87    180       7.500           7.500    
    175      1     88      1      -7.500          -7.500    
    176      1     88    180       7.500           7.500    
    177      1     89      1      -7.500          -7.500    
    178      1     89    180       7.500           7.500    
    179      1     90      1      -7.500          -7.500    
    180      1     90    180       7.500           7.500    
    181      1     91      1      -7.500          -7.500    
    182      1     91    180       7.500           7.500    
    183      1     92      1      -7.500          -7.500    
    184      1     92    180       7.500           7.500    
    185      1     93      1      -7.500          -7.500    
    186      1     93    180       7.500           7.500    
    187      1     94      1      -7.500          -7.500    
    188      1     94    180       7.500           7.500    
    189      1     95      1      -7.500          -7.500    
    190      1     95    180       7.500           7.500    
    191      1     96      1      -7.500          -7.500    
    192      1     96    180       7.500           7.500    
    193      1     97      1      -7.500          -7.500    
    194      1     97    180       7.500           7.500    
    195      1     98      1      -7.500          -7.500    
    196      1     98    180       7.500           7.500    
    197      1     99      1      -7.500          -7.500    
    198      1     99    180       7.500           7.500    
    199      1    100      1      -7.500          -7.500    
    200      1    100    180       7.500           7.500    
    201      1    101      1      -7.500          -7.500    
    202      1    101    180       7.500           7.500    
    203      1    102      1      -7.500          -7.500    
    204      1    102    180       7.500           7.500    
    205      1    103      1      -7.500          -7.500    
    206      1    103    180       7.500           7.500    
    207      1    104      1      -7.500          -7.500    
    208      1    104    180       7.500           7.500    
    209      1    105      1      -7.500          -7.500    
    210      1    105    180       7.500           7.500    
    211      1    106      1      -7.500          -7.500    
    212      1    106    180       7.500           7.500    
    213      1    107      1      -7.500          -7.500    
    214      1    107    180       7.500           7.500    
    215      1    108      1      -7.500          -7.500    
    216      1    108    180       7.500           7.500    
    217      1    109      1      -7.500          -7.500    
    218      1    109    180       7.500           7.500    
    219      1    110      1      -7.500          -7.500    
    220      1    110    180       7.500           7.500    
    221      1    111      1      -7.500          -7.500    
    222      1    111    180       7.500           7.500    
    223      1    112      1      -7.500          -7.500    
    224      1    112    180       7.500           7.500    
    225      1    113      1      -7.500          -7.500    
    226      1    113    180       7.500           7.500    
    227      1    114      1      -7.500          -7.500    
    228      1    114    180       7.500           7.500    
    229      1    115      1      -7.500          -7.500    
    230      1    115    180       7.500           7.500    
    231      1    116      1      -7.500          -7.500    
    232      1    116    180       7.500           7.500    
    233      1    117      1      -7.500          -7.500    
    234      1    117    180       7.500           7.500    
    235      1    118      1      -7.500          -7.500    
    236      1    118    180       7.500           7.500    
    237      1    119      1      -7.500          -7.500    
    238      1    119    180       7.500           7.500    
    239      1    120      1      -7.500          -7.500    
    240      1    120    180       7.500           7.500    
    241      1    121      1      -7.500          -7.500    
    242      1    121    180       7.500           7.500    
    243      1    122      1      -7.500          -7.500    
    244      1    122    180       7.500           7.500    
    245      1    123      1      -7.500          -7.500    
    246      1    123    180       7.500           7.500    
    247      1    124      1      -7.500          -7.500    
    248      1    124    180       7.500           7.500    
    249      1    125      1      -7.500          -7.500    
    250      1    125    180       7.500           7.500    
    251      1    126      1      -7.500          -7.500    
    252      1    126    180       7.500           7.500    
    253      1    127      1      -7.500          -7.500    
    254      1    127    180       7.500           7.500    
    255      1    128      1      -7.500          -7.500    
    256      1    128    180       7.500           7.500    
    257      1    129      1      -7.500          -7.500    
    258      1    129    180       7.500           7.500    
    259      1    130      1      -7.500          -7.500    
    260      1    130    180       7.500           7.500    
    261      1    131      1      -7.500          -7.500    
    262      1    131    180       7.500           7.500    
    263      1    132      1      -7.500          -7.500    
    264      1    132    180       7.500           7.500    
    265      1    133      1      -7.500          -7.500    
    266      1    133    180       7.500           7.500    
    267      1    134      1      -7.500          -7.500    
    268      1    134    180       7.500           7.500    
    269      1    135      1      -7.500          -7.500    
    270      1    135    180       7.500           7.500    
    271      1    136      1      -7.500          -7.500    
    272      1    136    180       7.500           7.500    
    273      1    137      1      -7.500          -7.500    
    274      1    137    180       7.500           7.500    
    275      1    138      1      -7.500          -7.500    
    276      1    138    180       7.500           7.500    
    277      1    139      1      -7.500          -7.500    
    278      1    139    180       7.500           7.500    
    279      1    140      1      -7.500          -7.500    
    280      1    140    180       7.500           7.500    
    281      1    141      1      -7.500          -7.500    
    282      1    141    180       7.500           7.500    
    283      1    142      1      -7.500          -7.500    
    284      1    142    180       7.500           7.500    
    285      1    143      1      -7.500          -7.500    
    286      1    143    180       7.500           7.500    
    287      1    144      1      -7.500          -7.500    
    288      1    144    180       7.500           7.500    
    289      1    145      1      -7.500          -7.500    
    290      1    145    180       7.500           7.500    
    291      1    146      1      -7.500          -7.500    
    292      1    146    180       7.500           7.500    
    293      1    147      1      -7.500          -7.500    
    294      1    147    180       7.500           7.500    
    295      1    148      1      -7.500          -7.500    
    296      1    148    180       7.500           7.500    
    297      1    149      1      -7.500          -7.500    
    298      1    149    180       7.500           7.500    
    299      1    150      1      -7.500          -7.500    
    300      1    150    180       7.500           7.500    
    301      1    151      1      -7.500          -7.500    
    302      1    151    180       7.500           7.500    
    303      1    152      1      -7.500          -7.500    
    304      1    152    180       7.500           7.500    
    305      1    153      1      -7.500          -7.500    
    306      1    153    180       7.500           7.500    
    307      1    154      1      -7.500          -7.500    
    308      1    154    180       7.500           7.500    
    309      1    155      1      -7.500          -7.500    
    310      1    155    180       7.500           7.500    
    311      1    156      1      -7.500          -7.500    
    312      1    156    180       7.500           7.500    
    313      1    157      1      -7.500          -7.500    
    314      1    157    180       7.500           7.500    
    315      1    158      1      -7.500          -7.500    
    316      1    158    180       7.500           7.500    
    317      1    159      1      -7.500          -7.500    
    318      1    159    180       7.500           7.500    
    319      1    160      1      -7.500          -7.500    
    320      1    160    180       7.500           7.500    
    321      1    161      1      -7.500          -7.500    
    322      1    161    180       7.500           7.500    
    323      1    162      1      -7.500          -7.500    
    324      1    162    180       7.500           7.500    
    325      1    163      1      -7.500          -7.500    
    326      1    163    180       7.500           7.500    
    327      1    164      1      -7.500          -7.500    
    328      1    164    180       7.500           7.500    
    329      1    165      1      -7.500          -7.500    
    330      1    165    180       7.500           7.500    
    331      1    166      1      -7.500          -7.500    
    332      1    166    180       7.500           7.500    
    333      1    167      1      -7.500          -7.500    
    334      1    167    180       7.500           7.500    
    335      1    168      1      -7.500          -7.500    
    336      1    168    180       7.500           7.500    
    337      1    169      1      -7.500          -7.500    
    338      1    169    180       7.500           7.500    
    339      1    170      1      -7.500          -7.500    
    340      1    170    180       7.500           7.500    
    341      1    171      1      -7.500          -7.500    
    342      1    171    180       7.500           7.500    
    343      1    172      1      -7.500          -7.500    
    344      1    172    180       7.500           7.500    
    345      1    173      1      -7.500          -7.500    
    346      1    173    180       7.500           7.500    
    347      1    174      1      -7.500          -7.500    
    348      1    174    180       7.500           7.500    
    349      1    175      1      -7.500          -7.500    
    350      1    175    180       7.500           7.500    
    351      1    176      1      -7.500          -7.500    
    352      1    176    180       7.500           7.500    
    353      1    177      1      -7.500          -7.500    
    354      1    177    180       7.500           7.500    
    355      1    178      1      -7.500          -7.500    
    356      1    178    180       7.500           7.500    
    357      1    179      1      -7.500          -7.500    
    358      1    179    180       7.500           7.500    
    359      1    180      1      -7.500          -7.500    
    360      1    180    180       7.500           7.500    


    360 TIME-VARIANT SPECIFIED-HEAD CELLS
 
 SOLVING FOR HEAD 

 OUTPUT CONTROL FOR STRESS PERIOD    9   TIME STEP    1
    SAVE HEAD FOR ALL LAYERS

 SAVING SATURATED THICKNESS AND FLOW TERMS ON UNIT   54 FOR MT3DMS
 BY THE LINK-MT3DMS PACKAGE V7 AT TIME STEP    1, STRESS PERIOD    9


 HEAD WILL BE SAVED ON UNIT   51 AT END OF TIME STEP    1, STRESS PERIOD    9
1
  VOLUMETRIC BUDGET FOR ENTIRE MODEL AT END OF TIME STEP    1, STRESS PERIOD   9
  ------------------------------------------------------------------------------

     CUMULATIVE VOLUMES      L**3       RATES FOR THIS TIME STEP      L**3/T
     ------------------                 ------------------------

           IN:                                      IN:
           ---                                      ---
             STORAGE =     1114767.8750               STORAGE =        1686.0903
       CONSTANT HEAD =     1232254.6250         CONSTANT HEAD =        3007.3564
               WELLS =      351622.1875                 WELLS =        1362.4131

            TOTAL IN =     2698644.5000              TOTAL IN =        6055.8599

          OUT:                                     OUT:
          ----                                     ----
             STORAGE =     1345339.1250               STORAGE =        2842.9675
       CONSTANT HEAD =     1257906.2500         CONSTANT HEAD =        3212.8926
               WELLS =       95398.8594                 WELLS =           0.0000

           TOTAL OUT =     2698644.2500             TOTAL OUT =        6055.8604

            IN - OUT =           0.2500              IN - OUT =      -4.8828E-04

 PERCENT DISCREPANCY =           0.00     PERCENT DISCREPANCY =          -0.00






         TIME SUMMARY AT END OF TIME STEP    1 IN STRESS PERIOD    9
                    SECONDS     MINUTES      HOURS       DAYS        YEARS
                    -----------------------------------------------------------
   TIME STEP LENGTH 2.59200E+06  43200.      720.00      30.000     8.21355E-02
 STRESS PERIOD TIME 2.59200E+06  43200.      720.00      30.000     8.21355E-02
         TOTAL TIME 2.33280E+07 3.88800E+05  6480.0      270.00     0.73922    
1
1
                            STRESS PERIOD NO.   10, LENGTH =   30.00000    
                            -----------------------------------------------

                              NUMBER OF TIME STEPS =     1

                               MULTIPLIER FOR DELT =     1.000

                            INITIAL TIME STEP SIZE =   30.00000    

 WELL NO.  LAYER   ROW   COL   STRESS RATE         
 --------------------------------------------------
      1      1     91     91      -1764.    

      1 WELL 

 CHD NO.   LAYER   ROW   COL    START HEAD        END HEAD         
 ------------------------------------------------------------------
      1      1      1      1      -7.500          -7.500    
      2      1      1    180       7.500           7.500    
      3      1      2      1      -7.500          -7.500    
      4      1      2    180       7.500           7.500    
      5      1      3      1      -7.500          -7.500    
      6      1      3    180       7.500           7.500    
      7      1      4      1      -7.500          -7.500    
      8      1      4    180       7.500           7.500    
      9      1      5      1      -7.500          -7.500    
     10      1      5    180       7.500           7.500    
     11      1      6      1      -7.500          -7.500    
     12      1      6    180       7.500           7.500    
     13      1      7      1      -7.500          -7.500    
     14      1      7    180       7.500           7.500    
     15      1      8      1      -7.500          -7.500    
     16      1      8    180       7.500           7.500    
     17      1      9      1      -7.500          -7.500    
     18      1      9    180       7.500           7.500    
     19      1     10      1      -7.500          -7.500    
     20      1     10    180       7.500           7.500    
     21      1     11      1      -7.500          -7.500    
     22      1     11    180       7.500           7.500    
     23      1     12      1      -7.500          -7.500    
     24      1     12    180       7.500           7.500    
     25      1     13      1      -7.500          -7.500    
     26      1     13    180       7.500           7.500    
     27      1     14      1      -7.500          -7.500    
     28      1     14    180       7.500           7.500    
     29      1     15      1      -7.500          -7.500    
     30      1     15    180       7.500           7.500    
     31      1     16      1      -7.500          -7.500    
     32      1     16    180       7.500           7.500    
     33      1     17      1      -7.500          -7.500    
     34      1     17    180       7.500           7.500    
     35      1     18      1      -7.500          -7.500    
     36      1     18    180       7.500           7.500    
     37      1     19      1      -7.500          -7.500    
     38      1     19    180       7.500           7.500    
     39      1     20      1      -7.500          -7.500    
     40      1     20    180       7.500           7.500    
     41      1     21      1      -7.500          -7.500    
     42      1     21    180       7.500           7.500    
     43      1     22      1      -7.500          -7.500    
     44      1     22    180       7.500           7.500    
     45      1     23      1      -7.500          -7.500    
     46      1     23    180       7.500           7.500    
     47      1     24      1      -7.500          -7.500    
     48      1     24    180       7.500           7.500    
     49      1     25      1      -7.500          -7.500    
     50      1     25    180       7.500           7.500    
     51      1     26      1      -7.500          -7.500    
     52      1     26    180       7.500           7.500    
     53      1     27      1      -7.500          -7.500    
     54      1     27    180       7.500           7.500    
     55      1     28      1      -7.500          -7.500    
     56      1     28    180       7.500           7.500    
     57      1     29      1      -7.500          -7.500    
     58      1     29    180       7.500           7.500    
     59      1     30      1      -7.500          -7.500    
     60      1     30    180       7.500           7.500    
     61      1     31      1      -7.500          -7.500    
     62      1     31    180       7.500           7.500    
     63      1     32      1      -7.500          -7.500    
     64      1     32    180       7.500           7.500    
     65      1     33      1      -7.500          -7.500    
     66      1     33    180       7.500           7.500    
     67      1     34      1      -7.500          -7.500    
     68      1     34    180       7.500           7.500    
     69      1     35      1      -7.500          -7.500    
     70      1     35    180       7.500           7.500    
     71      1     36      1      -7.500          -7.500    
     72      1     36    180       7.500           7.500    
     73      1     37      1      -7.500          -7.500    
     74      1     37    180       7.500           7.500    
     75      1     38      1      -7.500          -7.500    
     76      1     38    180       7.500           7.500    
     77      1     39      1      -7.500          -7.500    
     78      1     39    180       7.500           7.500    
     79      1     40      1      -7.500          -7.500    
     80      1     40    180       7.500           7.500    
     81      1     41      1      -7.500          -7.500    
     82      1     41    180       7.500           7.500    
     83      1     42      1      -7.500          -7.500    
     84      1     42    180       7.500           7.500    
     85      1     43      1      -7.500          -7.500    
     86      1     43    180       7.500           7.500    
     87      1     44      1      -7.500          -7.500    
     88      1     44    180       7.500           7.500    
     89      1     45      1      -7.500          -7.500    
     90      1     45    180       7.500           7.500    
     91      1     46      1      -7.500          -7.500    
     92      1     46    180       7.500           7.500    
     93      1     47      1      -7.500          -7.500    
     94      1     47    180       7.500           7.500    
     95      1     48      1      -7.500          -7.500    
     96      1     48    180       7.500           7.500    
     97      1     49      1      -7.500          -7.500    
     98      1     49    180       7.500           7.500    
     99      1     50      1      -7.500          -7.500    
    100      1     50    180       7.500           7.500    
    101      1     51      1      -7.500          -7.500    
    102      1     51    180       7.500           7.500    
    103      1     52      1      -7.500          -7.500    
    104      1     52    180       7.500           7.500    
    105      1     53      1      -7.500          -7.500    
    106      1     53    180       7.500           7.500    
    107      1     54      1      -7.500          -7.500    
    108      1     54    180       7.500           7.500    
    109      1     55      1      -7.500          -7.500    
    110      1     55    180       7.500           7.500    
    111      1     56      1      -7.500          -7.500    
    112      1     56    180       7.500           7.500    
    113      1     57      1      -7.500          -7.500    
    114      1     57    180       7.500           7.500    
    115      1     58      1      -7.500          -7.500    
    116      1     58    180       7.500           7.500    
    117      1     59      1      -7.500          -7.500    
    118      1     59    180       7.500           7.500    
    119      1     60      1      -7.500          -7.500    
    120      1     60    180       7.500           7.500    
    121      1     61      1      -7.500          -7.500    
    122      1     61    180       7.500           7.500    
    123      1     62      1      -7.500          -7.500    
    124      1     62    180       7.500           7.500    
    125      1     63      1      -7.500          -7.500    
    126      1     63    180       7.500           7.500    
    127      1     64      1      -7.500          -7.500    
    128      1     64    180       7.500           7.500    
    129      1     65      1      -7.500          -7.500    
    130      1     65    180       7.500           7.500    
    131      1     66      1      -7.500          -7.500    
    132      1     66    180       7.500           7.500    
    133      1     67      1      -7.500          -7.500    
    134      1     67    180       7.500           7.500    
    135      1     68      1      -7.500          -7.500    
    136      1     68    180       7.500           7.500    
    137      1     69      1      -7.500          -7.500    
    138      1     69    180       7.500           7.500    
    139      1     70      1      -7.500          -7.500    
    140      1     70    180       7.500           7.500    
    141      1     71      1      -7.500          -7.500    
    142      1     71    180       7.500           7.500    
    143      1     72      1      -7.500          -7.500    
    144      1     72    180       7.500           7.500    
    145      1     73      1      -7.500          -7.500    
    146      1     73    180       7.500           7.500    
    147      1     74      1      -7.500          -7.500    
    148      1     74    180       7.500           7.500    
    149      1     75      1      -7.500          -7.500    
    150      1     75    180       7.500           7.500    
    151      1     76      1      -7.500          -7.500    
    152      1     76    180       7.500           7.500    
    153      1     77      1      -7.500          -7.500    
    154      1     77    180       7.500           7.500    
    155      1     78      1      -7.500          -7.500    
    156      1     78    180       7.500           7.500    
    157      1     79      1      -7.500          -7.500    
    158      1     79    180       7.500           7.500    
    159      1     80      1      -7.500          -7.500    
    160      1     80    180       7.500           7.500    
    161      1     81      1      -7.500          -7.500    
    162      1     81    180       7.500           7.500    
    163      1     82      1      -7.500          -7.500    
    164      1     82    180       7.500           7.500    
    165      1     83      1      -7.500          -7.500    
    166      1     83    180       7.500           7.500    
    167      1     84      1      -7.500          -7.500    
    168      1     84    180       7.500           7.500    
    169      1     85      1      -7.500          -7.500    
    170      1     85    180       7.500           7.500    
    171      1     86      1      -7.500          -7.500    
    172      1     86    180       7.500           7.500    
    173      1     87      1      -7.500          -7.500    
    174      1     87    180       7.500           7.500    
    175      1     88      1      -7.500          -7.500    
    176      1     88    180       7.500           7.500    
    177      1     89      1      -7.500          -7.500    
    178      1     89    180       7.500           7.500    
    179      1     90      1      -7.500          -7.500    
    180      1     90    180       7.500           7.500    
    181      1     91      1      -7.500          -7.500    
    182      1     91    180       7.500           7.500    
    183      1     92      1      -7.500          -7.500    
    184      1     92    180       7.500           7.500    
    185      1     93      1      -7.500          -7.500    
    186      1     93    180       7.500           7.500    
    187      1     94      1      -7.500          -7.500    
    188      1     94    180       7.500           7.500    
    189      1     95      1      -7.500          -7.500    
    190      1     95    180       7.500           7.500    
    191      1     96      1      -7.500          -7.500    
    192      1     96    180       7.500           7.500    
    193      1     97      1      -7.500          -7.500    
    194      1     97    180       7.500           7.500    
    195      1     98      1      -7.500          -7.500    
    196      1     98    180       7.500           7.500    
    197      1     99      1      -7.500          -7.500    
    198      1     99    180       7.500           7.500    
    199      1    100      1      -7.500          -7.500    
    200      1    100    180       7.500           7.500    
    201      1    101      1      -7.500          -7.500    
    202      1    101    180       7.500           7.500    
    203      1    102      1      -7.500          -7.500    
    204      1    102    180       7.500           7.500    
    205      1    103      1      -7.500          -7.500    
    206      1    103    180       7.500           7.500    
    207      1    104      1      -7.500          -7.500    
    208      1    104    180       7.500           7.500    
    209      1    105      1      -7.500          -7.500    
    210      1    105    180       7.500           7.500    
    211      1    106      1      -7.500          -7.500    
    212      1    106    180       7.500           7.500    
    213      1    107      1      -7.500          -7.500    
    214      1    107    180       7.500           7.500    
    215      1    108      1      -7.500          -7.500    
    216      1    108    180       7.500           7.500    
    217      1    109      1      -7.500          -7.500    
    218      1    109    180       7.500           7.500    
    219      1    110      1      -7.500          -7.500    
    220      1    110    180       7.500           7.500    
    221      1    111      1      -7.500          -7.500    
    222      1    111    180       7.500           7.500    
    223      1    112      1      -7.500          -7.500    
    224      1    112    180       7.500           7.500    
    225      1    113      1      -7.500          -7.500    
    226      1    113    180       7.500           7.500    
    227      1    114      1      -7.500          -7.500    
    228      1    114    180       7.500           7.500    
    229      1    115      1      -7.500          -7.500    
    230      1    115    180       7.500           7.500    
    231      1    116      1      -7.500          -7.500    
    232      1    116    180       7.500           7.500    
    233      1    117      1      -7.500          -7.500    
    234      1    117    180       7.500           7.500    
    235      1    118      1      -7.500          -7.500    
    236      1    118    180       7.500           7.500    
    237      1    119      1      -7.500          -7.500    
    238      1    119    180       7.500           7.500    
    239      1    120      1      -7.500          -7.500    
    240      1    120    180       7.500           7.500    
    241      1    121      1      -7.500          -7.500    
    242      1    121    180       7.500           7.500    
    243      1    122      1      -7.500          -7.500    
    244      1    122    180       7.500           7.500    
    245      1    123      1      -7.500          -7.500    
    246      1    123    180       7.500           7.500    
    247      1    124      1      -7.500          -7.500    
    248      1    124    180       7.500           7.500    
    249      1    125      1      -7.500          -7.500    
    250      1    125    180       7.500           7.500    
    251      1    126      1      -7.500          -7.500    
    252      1    126    180       7.500           7.500    
    253      1    127      1      -7.500          -7.500    
    254      1    127    180       7.500           7.500    
    255      1    128      1      -7.500          -7.500    
    256      1    128    180       7.500           7.500    
    257      1    129      1      -7.500          -7.500    
    258      1    129    180       7.500           7.500    
    259      1    130      1      -7.500          -7.500    
    260      1    130    180       7.500           7.500    
    261      1    131      1      -7.500          -7.500    
    262      1    131    180       7.500           7.500    
    263      1    132      1      -7.500          -7.500    
    264      1    132    180       7.500           7.500    
    265      1    133      1      -7.500          -7.500    
    266      1    133    180       7.500           7.500    
    267      1    134      1      -7.500          -7.500    
    268      1    134    180       7.500           7.500    
    269      1    135      1      -7.500          -7.500    
    270      1    135    180       7.500           7.500    
    271      1    136      1      -7.500          -7.500    
    272      1    136    180       7.500           7.500    
    273      1    137      1      -7.500          -7.500    
    274      1    137    180       7.500           7.500    
    275      1    138      1      -7.500          -7.500    
    276      1    138    180       7.500           7.500    
    277      1    139      1      -7.500          -7.500    
    278      1    139    180       7.500           7.500    
    279      1    140      1      -7.500          -7.500    
    280      1    140    180       7.500           7.500    
    281      1    141      1      -7.500          -7.500    
    282      1    141    180       7.500           7.500    
    283      1    142      1      -7.500          -7.500    
    284      1    142    180       7.500           7.500    
    285      1    143      1      -7.500          -7.500    
    286      1    143    180       7.500           7.500    
    287      1    144      1      -7.500          -7.500    
    288      1    144    180       7.500           7.500    
    289      1    145      1      -7.500          -7.500    
    290      1    145    180       7.500           7.500    
    291      1    146      1      -7.500          -7.500    
    292      1    146    180       7.500           7.500    
    293      1    147      1      -7.500          -7.500    
    294      1    147    180       7.500           7.500    
    295      1    148      1      -7.500          -7.500    
    296      1    148    180       7.500           7.500    
    297      1    149      1      -7.500          -7.500    
    298      1    149    180       7.500           7.500    
    299      1    150      1      -7.500          -7.500    
    300      1    150    180       7.500           7.500    
    301      1    151      1      -7.500          -7.500    
    302      1    151    180       7.500           7.500    
    303      1    152      1      -7.500          -7.500    
    304      1    152    180       7.500           7.500    
    305      1    153      1      -7.500          -7.500    
    306      1    153    180       7.500           7.500    
    307      1    154      1      -7.500          -7.500    
    308      1    154    180       7.500           7.500    
    309      1    155      1      -7.500          -7.500    
    310      1    155    180       7.500           7.500    
    311      1    156      1      -7.500          -7.500    
    312      1    156    180       7.500           7.500    
    313      1    157      1      -7.500          -7.500    
    314      1    157    180       7.500           7.500    
    315      1    158      1      -7.500          -7.500    
    316      1    158    180       7.500           7.500    
    317      1    159      1      -7.500          -7.500    
    318      1    159    180       7.500           7.500    
    319      1    160      1      -7.500          -7.500    
    320      1    160    180       7.500           7.500    
    321      1    161      1      -7.500          -7.500    
    322      1    161    180       7.500           7.500    
    323      1    162      1      -7.500          -7.500    
    324      1    162    180       7.500           7.500    
    325      1    163      1      -7.500          -7.500    
    326      1    163    180       7.500           7.500    
    327      1    164      1      -7.500          -7.500    
    328      1    164    180       7.500           7.500    
    329      1    165      1      -7.500          -7.500    
    330      1    165    180       7.500           7.500    
    331      1    166      1      -7.500          -7.500    
    332      1    166    180       7.500           7.500    
    333      1    167      1      -7.500          -7.500    
    334      1    167    180       7.500           7.500    
    335      1    168      1      -7.500          -7.500    
    336      1    168    180       7.500           7.500    
    337      1    169      1      -7.500          -7.500    
    338      1    169    180       7.500           7.500    
    339      1    170      1      -7.500          -7.500    
    340      1    170    180       7.500           7.500    
    341      1    171      1      -7.500          -7.500    
    342      1    171    180       7.500           7.500    
    343      1    172      1      -7.500          -7.500    
    344      1    172    180       7.500           7.500    
    345      1    173      1      -7.500          -7.500    
    346      1    173    180       7.500           7.500    
    347      1    174      1      -7.500          -7.500    
    348      1    174    180       7.500           7.500    
    349      1    175      1      -7.500          -7.500    
    350      1    175    180       7.500           7.500    
    351      1    176      1      -7.500          -7.500    
    352      1    176    180       7.500           7.500    
    353      1    177      1      -7.500          -7.500    
    354      1    177    180       7.500           7.500    
    355      1    178      1      -7.500          -7.500    
    356      1    178    180       7.500           7.500    
    357      1    179      1      -7.500          -7.500    
    358      1    179    180       7.500           7.500    
    359      1    180      1      -7.500          -7.500    
    360      1    180    180       7.500           7.500    


    360 TIME-VARIANT SPECIFIED-HEAD CELLS
 
 SOLVING FOR HEAD 

 OUTPUT CONTROL FOR STRESS PERIOD   10   TIME STEP    1
    SAVE HEAD FOR ALL LAYERS

 SAVING SATURATED THICKNESS AND FLOW TERMS ON UNIT   54 FOR MT3DMS
 BY THE LINK-MT3DMS PACKAGE V7 AT TIME STEP    1, STRESS PERIOD   10


 HEAD WILL BE SAVED ON UNIT   51 AT END OF TIME STEP    1, STRESS PERIOD   10
1
  VOLUMETRIC BUDGET FOR ENTIRE MODEL AT END OF TIME STEP    1, STRESS PERIOD  10
  ------------------------------------------------------------------------------

     CUMULATIVE VOLUMES      L**3       RATES FOR THIS TIME STEP      L**3/T
     ------------------                 ------------------------

           IN:                                      IN:
           ---                                      ---
             STORAGE =     1218101.5000               STORAGE =        3444.4546
       CONSTANT HEAD =     1317821.0000         CONSTANT HEAD =        2852.2122
               WELLS =      351622.1875                 WELLS =           0.0000

            TOTAL IN =     2887544.7500              TOTAL IN =        6296.6670

          OUT:                                     OUT:
          ----                                     ----
             STORAGE =     1389129.0000               STORAGE =        1459.6633
       CONSTANT HEAD =     1350101.5000         CONSTANT HEAD =        3073.1731
               WELLS =      148313.7812                 WELLS =        1763.8306

           TOTAL OUT =     2887544.2500             TOTAL OUT =        6296.6670

            IN - OUT =           0.5000              IN - OUT =           0.0000

 PERCENT DISCREPANCY =           0.00     PERCENT DISCREPANCY =           0.00






         TIME SUMMARY AT END OF TIME STEP    1 IN STRESS PERIOD   10
                    SECONDS     MINUTES      HOURS       DAYS        YEARS
                    -----------------------------------------------------------
   TIME STEP LENGTH 2.59200E+06  43200.      720.00      30.000     8.21355E-02
 STRESS PERIOD TIME 2.59200E+06  43200.      720.00      30.000     8.21355E-02
         TOTAL TIME 2.59200E+07 4.32000E+05  7200.0      300.00     0.82136    
1
1
                            STRESS PERIOD NO.   11, LENGTH =   30.00000    
                            -----------------------------------------------

                              NUMBER OF TIME STEPS =     1

                               MULTIPLIER FOR DELT =     1.000

                            INITIAL TIME STEP SIZE =   30.00000    

 WELL NO.  LAYER   ROW   COL   STRESS RATE         
 --------------------------------------------------
      1      1     91     91      -1854.    

      1 WELL 

 CHD NO.   LAYER   ROW   COL    START HEAD        END HEAD         
 ------------------------------------------------------------------
      1      1      1      1      -7.500          -7.500    
      2      1      1    180       7.500           7.500    
      3      1      2      1      -7.500          -7.500    
      4      1      2    180       7.500           7.500    
      5      1      3      1      -7.500          -7.500    
      6      1      3    180       7.500           7.500    
      7      1      4      1      -7.500          -7.500    
      8      1      4    180       7.500           7.500    
      9      1      5      1      -7.500          -7.500    
     10      1      5    180       7.500           7.500    
     11      1      6      1      -7.500          -7.500    
     12      1      6    180       7.500           7.500    
     13      1      7      1      -7.500          -7.500    
     14      1      7    180       7.500           7.500    
     15      1      8      1      -7.500          -7.500    
     16      1      8    180       7.500           7.500    
     17      1      9      1      -7.500          -7.500    
     18      1      9    180       7.500           7.500    
     19      1     10      1      -7.500          -7.500    
     20      1     10    180       7.500           7.500    
     21      1     11      1      -7.500          -7.500    
     22      1     11    180       7.500           7.500    
     23      1     12      1      -7.500          -7.500    
     24      1     12    180       7.500           7.500    
     25      1     13      1      -7.500          -7.500    
     26      1     13    180       7.500           7.500    
     27      1     14      1      -7.500          -7.500    
     28      1     14    180       7.500           7.500    
     29      1     15      1      -7.500          -7.500    
     30      1     15    180       7.500           7.500    
     31      1     16      1      -7.500          -7.500    
     32      1     16    180       7.500           7.500    
     33      1     17      1      -7.500          -7.500    
     34      1     17    180       7.500           7.500    
     35      1     18      1      -7.500          -7.500    
     36      1     18    180       7.500           7.500    
     37      1     19      1      -7.500          -7.500    
     38      1     19    180       7.500           7.500    
     39      1     20      1      -7.500          -7.500    
     40      1     20    180       7.500           7.500    
     41      1     21      1      -7.500          -7.500    
     42      1     21    180       7.500           7.500    
     43      1     22      1      -7.500          -7.500    
     44      1     22    180       7.500           7.500    
     45      1     23      1      -7.500          -7.500    
     46      1     23    180       7.500           7.500    
     47      1     24      1      -7.500          -7.500    
     48      1     24    180       7.500           7.500    
     49      1     25      1      -7.500          -7.500    
     50      1     25    180       7.500           7.500    
     51      1     26      1      -7.500          -7.500    
     52      1     26    180       7.500           7.500    
     53      1     27      1      -7.500          -7.500    
     54      1     27    180       7.500           7.500    
     55      1     28      1      -7.500          -7.500    
     56      1     28    180       7.500           7.500    
     57      1     29      1      -7.500          -7.500    
     58      1     29    180       7.500           7.500    
     59      1     30      1      -7.500          -7.500    
     60      1     30    180       7.500           7.500    
     61      1     31      1      -7.500          -7.500    
     62      1     31    180       7.500           7.500    
     63      1     32      1      -7.500          -7.500    
     64      1     32    180       7.500           7.500    
     65      1     33      1      -7.500          -7.500    
     66      1     33    180       7.500           7.500    
     67      1     34      1      -7.500          -7.500    
     68      1     34    180       7.500           7.500    
     69      1     35      1      -7.500          -7.500    
     70      1     35    180       7.500           7.500    
     71      1     36      1      -7.500          -7.500    
     72      1     36    180       7.500           7.500    
     73      1     37      1      -7.500          -7.500    
     74      1     37    180       7.500           7.500    
     75      1     38      1      -7.500          -7.500    
     76      1     38    180       7.500           7.500    
     77      1     39      1      -7.500          -7.500    
     78      1     39    180       7.500           7.500    
     79      1     40      1      -7.500          -7.500    
     80      1     40    180       7.500           7.500    
     81      1     41      1      -7.500          -7.500    
     82      1     41    180       7.500           7.500    
     83      1     42      1      -7.500          -7.500    
     84      1     42    180       7.500           7.500    
     85      1     43      1      -7.500          -7.500    
     86      1     43    180       7.500           7.500    
     87      1     44      1      -7.500          -7.500    
     88      1     44    180       7.500           7.500    
     89      1     45      1      -7.500          -7.500    
     90      1     45    180       7.500           7.500    
     91      1     46      1      -7.500          -7.500    
     92      1     46    180       7.500           7.500    
     93      1     47      1      -7.500          -7.500    
     94      1     47    180       7.500           7.500    
     95      1     48      1      -7.500          -7.500    
     96      1     48    180       7.500           7.500    
     97      1     49      1      -7.500          -7.500    
     98      1     49    180       7.500           7.500    
     99      1     50      1      -7.500          -7.500    
    100      1     50    180       7.500           7.500    
    101      1     51      1      -7.500          -7.500    
    102      1     51    180       7.500           7.500    
    103      1     52      1      -7.500          -7.500    
    104      1     52    180       7.500           7.500    
    105      1     53      1      -7.500          -7.500    
    106      1     53    180       7.500           7.500    
    107      1     54      1      -7.500          -7.500    
    108      1     54    180       7.500           7.500    
    109      1     55      1      -7.500          -7.500    
    110      1     55    180       7.500           7.500    
    111      1     56      1      -7.500          -7.500    
    112      1     56    180       7.500           7.500    
    113      1     57      1      -7.500          -7.500    
    114      1     57    180       7.500           7.500    
    115      1     58      1      -7.500          -7.500    
    116      1     58    180       7.500           7.500    
    117      1     59      1      -7.500          -7.500    
    118      1     59    180       7.500           7.500    
    119      1     60      1      -7.500          -7.500    
    120      1     60    180       7.500           7.500    
    121      1     61      1      -7.500          -7.500    
    122      1     61    180       7.500           7.500    
    123      1     62      1      -7.500          -7.500    
    124      1     62    180       7.500           7.500    
    125      1     63      1      -7.500          -7.500    
    126      1     63    180       7.500           7.500    
    127      1     64      1      -7.500          -7.500    
    128      1     64    180       7.500           7.500    
    129      1     65      1      -7.500          -7.500    
    130      1     65    180       7.500           7.500    
    131      1     66      1      -7.500          -7.500    
    132      1     66    180       7.500           7.500    
    133      1     67      1      -7.500          -7.500    
    134      1     67    180       7.500           7.500    
    135      1     68      1      -7.500          -7.500    
    136      1     68    180       7.500           7.500    
    137      1     69      1      -7.500          -7.500    
    138      1     69    180       7.500           7.500    
    139      1     70      1      -7.500          -7.500    
    140      1     70    180       7.500           7.500    
    141      1     71      1      -7.500          -7.500    
    142      1     71    180       7.500           7.500    
    143      1     72      1      -7.500          -7.500    
    144      1     72    180       7.500           7.500    
    145      1     73      1      -7.500          -7.500    
    146      1     73    180       7.500           7.500    
    147      1     74      1      -7.500          -7.500    
    148      1     74    180       7.500           7.500    
    149      1     75      1      -7.500          -7.500    
    150      1     75    180       7.500           7.500    
    151      1     76      1      -7.500          -7.500    
    152      1     76    180       7.500           7.500    
    153      1     77      1      -7.500          -7.500    
    154      1     77    180       7.500           7.500    
    155      1     78      1      -7.500          -7.500    
    156      1     78    180       7.500           7.500    
    157      1     79      1      -7.500          -7.500    
    158      1     79    180       7.500           7.500    
    159      1     80      1      -7.500          -7.500    
    160      1     80    180       7.500           7.500    
    161      1     81      1      -7.500          -7.500    
    162      1     81    180       7.500           7.500    
    163      1     82      1      -7.500          -7.500    
    164      1     82    180       7.500           7.500    
    165      1     83      1      -7.500          -7.500    
    166      1     83    180       7.500           7.500    
    167      1     84      1      -7.500          -7.500    
    168      1     84    180       7.500           7.500    
    169      1     85      1      -7.500          -7.500    
    170      1     85    180       7.500           7.500    
    171      1     86      1      -7.500          -7.500    
    172      1     86    180       7.500           7.500    
    173      1     87      1      -7.500          -7.500    
    174      1     87    180       7.500           7.500    
    175      1     88      1      -7.500          -7.500    
    176      1     88    180       7.500           7.500    
    177      1     89      1      -7.500          -7.500    
    178      1     89    180       7.500           7.500    
    179      1     90      1      -7.500          -7.500    
    180      1     90    180       7.500           7.500    
    181      1     91      1      -7.500          -7.500    
    182      1     91    180       7.500           7.500    
    183      1     92      1      -7.500          -7.500    
    184      1     92    180       7.500           7.500    
    185      1     93      1      -7.500          -7.500    
    186      1     93    180       7.500           7.500    
    187      1     94      1      -7.500          -7.500    
    188      1     94    180       7.500           7.500    
    189      1     95      1      -7.500          -7.500    
    190      1     95    180       7.500           7.500    
    191      1     96      1      -7.500          -7.500    
    192      1     96    180       7.500           7.500    
    193      1     97      1      -7.500          -7.500    
    194      1     97    180       7.500           7.500    
    195      1     98      1      -7.500          -7.500    
    196      1     98    180       7.500           7.500    
    197      1     99      1      -7.500          -7.500    
    198      1     99    180       7.500           7.500    
    199      1    100      1      -7.500          -7.500    
    200      1    100    180       7.500           7.500    
    201      1    101      1      -7.500          -7.500    
    202      1    101    180       7.500           7.500    
    203      1    102      1      -7.500          -7.500    
    204      1    102    180       7.500           7.500    
    205      1    103      1      -7.500          -7.500    
    206      1    103    180       7.500           7.500    
    207      1    104      1      -7.500          -7.500    
    208      1    104    180       7.500           7.500    
    209      1    105      1      -7.500          -7.500    
    210      1    105    180       7.500           7.500    
    211      1    106      1      -7.500          -7.500    
    212      1    106    180       7.500           7.500    
    213      1    107      1      -7.500          -7.500    
    214      1    107    180       7.500           7.500    
    215      1    108      1      -7.500          -7.500    
    216      1    108    180       7.500           7.500    
    217      1    109      1      -7.500          -7.500    
    218      1    109    180       7.500           7.500    
    219      1    110      1      -7.500          -7.500    
    220      1    110    180       7.500           7.500    
    221      1    111      1      -7.500          -7.500    
    222      1    111    180       7.500           7.500    
    223      1    112      1      -7.500          -7.500    
    224      1    112    180       7.500           7.500    
    225      1    113      1      -7.500          -7.500    
    226      1    113    180       7.500           7.500    
    227      1    114      1      -7.500          -7.500    
    228      1    114    180       7.500           7.500    
    229      1    115      1      -7.500          -7.500    
    230      1    115    180       7.500           7.500    
    231      1    116      1      -7.500          -7.500    
    232      1    116    180       7.500           7.500    
    233      1    117      1      -7.500          -7.500    
    234      1    117    180       7.500           7.500    
    235      1    118      1      -7.500          -7.500    
    236      1    118    180       7.500           7.500    
    237      1    119      1      -7.500          -7.500    
    238      1    119    180       7.500           7.500    
    239      1    120      1      -7.500          -7.500    
    240      1    120    180       7.500           7.500    
    241      1    121      1      -7.500          -7.500    
    242      1    121    180       7.500           7.500    
    243      1    122      1      -7.500          -7.500    
    244      1    122    180       7.500           7.500    
    245      1    123      1      -7.500          -7.500    
    246      1    123    180       7.500           7.500    
    247      1    124      1      -7.500          -7.500    
    248      1    124    180       7.500           7.500    
    249      1    125      1      -7.500          -7.500    
    250      1    125    180       7.500           7.500    
    251      1    126      1      -7.500          -7.500    
    252      1    126    180       7.500           7.500    
    253      1    127      1      -7.500          -7.500    
    254      1    127    180       7.500           7.500    
    255      1    128      1      -7.500          -7.500    
    256      1    128    180       7.500           7.500    
    257      1    129      1      -7.500          -7.500    
    258      1    129    180       7.500           7.500    
    259      1    130      1      -7.500          -7.500    
    260      1    130    180       7.500           7.500    
    261      1    131      1      -7.500          -7.500    
    262      1    131    180       7.500           7.500    
    263      1    132      1      -7.500          -7.500    
    264      1    132    180       7.500           7.500    
    265      1    133      1      -7.500          -7.500    
    266      1    133    180       7.500           7.500    
    267      1    134      1      -7.500          -7.500    
    268      1    134    180       7.500           7.500    
    269      1    135      1      -7.500          -7.500    
    270      1    135    180       7.500           7.500    
    271      1    136      1      -7.500          -7.500    
    272      1    136    180       7.500           7.500    
    273      1    137      1      -7.500          -7.500    
    274      1    137    180       7.500           7.500    
    275      1    138      1      -7.500          -7.500    
    276      1    138    180       7.500           7.500    
    277      1    139      1      -7.500          -7.500    
    278      1    139    180       7.500           7.500    
    279      1    140      1      -7.500          -7.500    
    280      1    140    180       7.500           7.500    
    281      1    141      1      -7.500          -7.500    
    282      1    141    180       7.500           7.500    
    283      1    142      1      -7.500          -7.500    
    284      1    142    180       7.500           7.500    
    285      1    143      1      -7.500          -7.500    
    286      1    143    180       7.500           7.500    
    287      1    144      1      -7.500          -7.500    
    288      1    144    180       7.500           7.500    
    289      1    145      1      -7.500          -7.500    
    290      1    145    180       7.500           7.500    
    291      1    146      1      -7.500          -7.500    
    292      1    146    180       7.500           7.500    
    293      1    147      1      -7.500          -7.500    
    294      1    147    180       7.500           7.500    
    295      1    148      1      -7.500          -7.500    
    296      1    148    180       7.500           7.500    
    297      1    149      1      -7.500          -7.500    
    298      1    149    180       7.500           7.500    
    299      1    150      1      -7.500          -7.500    
    300      1    150    180       7.500           7.500    
    301      1    151      1      -7.500          -7.500    
    302      1    151    180       7.500           7.500    
    303      1    152      1      -7.500          -7.500    
    304      1    152    180       7.500           7.500    
    305      1    153      1      -7.500          -7.500    
    306      1    153    180       7.500           7.500    
    307      1    154      1      -7.500          -7.500    
    308      1    154    180       7.500           7.500    
    309      1    155      1      -7.500          -7.500    
    310      1    155    180       7.500           7.500    
    311      1    156      1      -7.500          -7.500    
    312      1    156    180       7.500           7.500    
    313      1    157      1      -7.500          -7.500    
    314      1    157    180       7.500           7.500    
    315      1    158      1      -7.500          -7.500    
    316      1    158    180       7.500           7.500    
    317      1    159      1      -7.500          -7.500    
    318      1    159    180       7.500           7.500    
    319      1    160      1      -7.500          -7.500    
    320      1    160    180       7.500           7.500    
    321      1    161      1      -7.500          -7.500    
    322      1    161    180       7.500           7.500    
    323      1    162      1      -7.500          -7.500    
    324      1    162    180       7.500           7.500    
    325      1    163      1      -7.500          -7.500    
    326      1    163    180       7.500           7.500    
    327      1    164      1      -7.500          -7.500    
    328      1    164    180       7.500           7.500    
    329      1    165      1      -7.500          -7.500    
    330      1    165    180       7.500           7.500    
    331      1    166      1      -7.500          -7.500    
    332      1    166    180       7.500           7.500    
    333      1    167      1      -7.500          -7.500    
    334      1    167    180       7.500           7.500    
    335      1    168      1      -7.500          -7.500    
    336      1    168    180       7.500           7.500    
    337      1    169      1      -7.500          -7.500    
    338      1    169    180       7.500           7.500    
    339      1    170      1      -7.500          -7.500    
    340      1    170    180       7.500           7.500    
    341      1    171      1      -7.500          -7.500    
    342      1    171    180       7.500           7.500    
    343      1    172      1      -7.500          -7.500    
    344      1    172    180       7.500           7.500    
    345      1    173      1      -7.500          -7.500    
    346      1    173    180       7.500           7.500    
    347      1    174      1      -7.500          -7.500    
    348      1    174    180       7.500           7.500    
    349      1    175      1      -7.500          -7.500    
    350      1    175    180       7.500           7.500    
    351      1    176      1      -7.500          -7.500    
    352      1    176    180       7.500           7.500    
    353      1    177      1      -7.500          -7.500    
    354      1    177    180       7.500           7.500    
    355      1    178      1      -7.500          -7.500    
    356      1    178    180       7.500           7.500    
    357      1    179      1      -7.500          -7.500    
    358      1    179    180       7.500           7.500    
    359      1    180      1      -7.500          -7.500    
    360      1    180    180       7.500           7.500    


    360 TIME-VARIANT SPECIFIED-HEAD CELLS
 
 SOLVING FOR HEAD 

 OUTPUT CONTROL FOR STRESS PERIOD   11   TIME STEP    1
    SAVE HEAD FOR ALL LAYERS

 SAVING SATURATED THICKNESS AND FLOW TERMS ON UNIT   54 FOR MT3DMS
 BY THE LINK-MT3DMS PACKAGE V7 AT TIME STEP    1, STRESS PERIOD   11


 HEAD WILL BE SAVED ON UNIT   51 AT END OF TIME STEP    1, STRESS PERIOD   11
1
  VOLUMETRIC BUDGET FOR ENTIRE MODEL AT END OF TIME STEP    1, STRESS PERIOD  11
  ------------------------------------------------------------------------------

     CUMULATIVE VOLUMES      L**3       RATES FOR THIS TIME STEP      L**3/T
     ------------------                 ------------------------

           IN:                                      IN:
           ---                                      ---
             STORAGE =     1313046.0000               STORAGE =        3164.8184
       CONSTANT HEAD =     1399684.7500         CONSTANT HEAD =        2728.7937
               WELLS =      351622.1875                 WELLS =           0.0000

            TOTAL IN =     3064353.0000              TOTAL IN =        5893.6123

          OUT:                                     OUT:
          ----                                     ----
             STORAGE =     1421758.2500               STORAGE =        1087.6429
       CONSTANT HEAD =     1438656.3750         CONSTANT HEAD =        2951.8296
               WELLS =      203937.9531                 WELLS =        1854.1390

           TOTAL OUT =     3064352.5000             TOTAL OUT =        5893.6118

            IN - OUT =           0.5000              IN - OUT =       4.8828E-04

 PERCENT DISCREPANCY =           0.00     PERCENT DISCREPANCY =           0.00






         TIME SUMMARY AT END OF TIME STEP    1 IN STRESS PERIOD   11
                    SECONDS     MINUTES      HOURS       DAYS        YEARS
                    -----------------------------------------------------------
   TIME STEP LENGTH 2.59200E+06  43200.      720.00      30.000     8.21355E-02
 STRESS PERIOD TIME 2.59200E+06  43200.      720.00      30.000     8.21355E-02
         TOTAL TIME 2.85120E+07 4.75200E+05  7920.0      330.00     0.90349    
1
1
                            STRESS PERIOD NO.   12, LENGTH =   30.00000    
                            -----------------------------------------------

                              NUMBER OF TIME STEPS =     1

                               MULTIPLIER FOR DELT =     1.000

                            INITIAL TIME STEP SIZE =   30.00000    

 WELL NO.  LAYER   ROW   COL   STRESS RATE         
 --------------------------------------------------
      1      1     91     91       1216.    

      1 WELL 

 CHD NO.   LAYER   ROW   COL    START HEAD        END HEAD         
 ------------------------------------------------------------------
      1      1      1      1      -7.500          -7.500    
      2      1      1    180       7.500           7.500    
      3      1      2      1      -7.500          -7.500    
      4      1      2    180       7.500           7.500    
      5      1      3      1      -7.500          -7.500    
      6      1      3    180       7.500           7.500    
      7      1      4      1      -7.500          -7.500    
      8      1      4    180       7.500           7.500    
      9      1      5      1      -7.500          -7.500    
     10      1      5    180       7.500           7.500    
     11      1      6      1      -7.500          -7.500    
     12      1      6    180       7.500           7.500    
     13      1      7      1      -7.500          -7.500    
     14      1      7    180       7.500           7.500    
     15      1      8      1      -7.500          -7.500    
     16      1      8    180       7.500           7.500    
     17      1      9      1      -7.500          -7.500    
     18      1      9    180       7.500           7.500    
     19      1     10      1      -7.500          -7.500    
     20      1     10    180       7.500           7.500    
     21      1     11      1      -7.500          -7.500    
     22      1     11    180       7.500           7.500    
     23      1     12      1      -7.500          -7.500    
     24      1     12    180       7.500           7.500    
     25      1     13      1      -7.500          -7.500    
     26      1     13    180       7.500           7.500    
     27      1     14      1      -7.500          -7.500    
     28      1     14    180       7.500           7.500    
     29      1     15      1      -7.500          -7.500    
     30      1     15    180       7.500           7.500    
     31      1     16      1      -7.500          -7.500    
     32      1     16    180       7.500           7.500    
     33      1     17      1      -7.500          -7.500    
     34      1     17    180       7.500           7.500    
     35      1     18      1      -7.500          -7.500    
     36      1     18    180       7.500           7.500    
     37      1     19      1      -7.500          -7.500    
     38      1     19    180       7.500           7.500    
     39      1     20      1      -7.500          -7.500    
     40      1     20    180       7.500           7.500    
     41      1     21      1      -7.500          -7.500    
     42      1     21    180       7.500           7.500    
     43      1     22      1      -7.500          -7.500    
     44      1     22    180       7.500           7.500    
     45      1     23      1      -7.500          -7.500    
     46      1     23    180       7.500           7.500    
     47      1     24      1      -7.500          -7.500    
     48      1     24    180       7.500           7.500    
     49      1     25      1      -7.500          -7.500    
     50      1     25    180       7.500           7.500    
     51      1     26      1      -7.500          -7.500    
     52      1     26    180       7.500           7.500    
     53      1     27      1      -7.500          -7.500    
     54      1     27    180       7.500           7.500    
     55      1     28      1      -7.500          -7.500    
     56      1     28    180       7.500           7.500    
     57      1     29      1      -7.500          -7.500    
     58      1     29    180       7.500           7.500    
     59      1     30      1      -7.500          -7.500    
     60      1     30    180       7.500           7.500    
     61      1     31      1      -7.500          -7.500    
     62      1     31    180       7.500           7.500    
     63      1     32      1      -7.500          -7.500    
     64      1     32    180       7.500           7.500    
     65      1     33      1      -7.500          -7.500    
     66      1     33    180       7.500           7.500    
     67      1     34      1      -7.500          -7.500    
     68      1     34    180       7.500           7.500    
     69      1     35      1      -7.500          -7.500    
     70      1     35    180       7.500           7.500    
     71      1     36      1      -7.500          -7.500    
     72      1     36    180       7.500           7.500    
     73      1     37      1      -7.500          -7.500    
     74      1     37    180       7.500           7.500    
     75      1     38      1      -7.500          -7.500    
     76      1     38    180       7.500           7.500    
     77      1     39      1      -7.500          -7.500    
     78      1     39    180       7.500           7.500    
     79      1     40      1      -7.500          -7.500    
     80      1     40    180       7.500           7.500    
     81      1     41      1      -7.500          -7.500    
     82      1     41    180       7.500           7.500    
     83      1     42      1      -7.500          -7.500    
     84      1     42    180       7.500           7.500    
     85      1     43      1      -7.500          -7.500    
     86      1     43    180       7.500           7.500    
     87      1     44      1      -7.500          -7.500    
     88      1     44    180       7.500           7.500    
     89      1     45      1      -7.500          -7.500    
     90      1     45    180       7.500           7.500    
     91      1     46      1      -7.500          -7.500    
     92      1     46    180       7.500           7.500    
     93      1     47      1      -7.500          -7.500    
     94      1     47    180       7.500           7.500    
     95      1     48      1      -7.500          -7.500    
     96      1     48    180       7.500           7.500    
     97      1     49      1      -7.500          -7.500    
     98      1     49    180       7.500           7.500    
     99      1     50      1      -7.500          -7.500    
    100      1     50    180       7.500           7.500    
    101      1     51      1      -7.500          -7.500    
    102      1     51    180       7.500           7.500    
    103      1     52      1      -7.500          -7.500    
    104      1     52    180       7.500           7.500    
    105      1     53      1      -7.500          -7.500    
    106      1     53    180       7.500           7.500    
    107      1     54      1      -7.500          -7.500    
    108      1     54    180       7.500           7.500    
    109      1     55      1      -7.500          -7.500    
    110      1     55    180       7.500           7.500    
    111      1     56      1      -7.500          -7.500    
    112      1     56    180       7.500           7.500    
    113      1     57      1      -7.500          -7.500    
    114      1     57    180       7.500           7.500    
    115      1     58      1      -7.500          -7.500    
    116      1     58    180       7.500           7.500    
    117      1     59      1      -7.500          -7.500    
    118      1     59    180       7.500           7.500    
    119      1     60      1      -7.500          -7.500    
    120      1     60    180       7.500           7.500    
    121      1     61      1      -7.500          -7.500    
    122      1     61    180       7.500           7.500    
    123      1     62      1      -7.500          -7.500    
    124      1     62    180       7.500           7.500    
    125      1     63      1      -7.500          -7.500    
    126      1     63    180       7.500           7.500    
    127      1     64      1      -7.500          -7.500    
    128      1     64    180       7.500           7.500    
    129      1     65      1      -7.500          -7.500    
    130      1     65    180       7.500           7.500    
    131      1     66      1      -7.500          -7.500    
    132      1     66    180       7.500           7.500    
    133      1     67      1      -7.500          -7.500    
    134      1     67    180       7.500           7.500    
    135      1     68      1      -7.500          -7.500    
    136      1     68    180       7.500           7.500    
    137      1     69      1      -7.500          -7.500    
    138      1     69    180       7.500           7.500    
    139      1     70      1      -7.500          -7.500    
    140      1     70    180       7.500           7.500    
    141      1     71      1      -7.500          -7.500    
    142      1     71    180       7.500           7.500    
    143      1     72      1      -7.500          -7.500    
    144      1     72    180       7.500           7.500    
    145      1     73      1      -7.500          -7.500    
    146      1     73    180       7.500           7.500    
    147      1     74      1      -7.500          -7.500    
    148      1     74    180       7.500           7.500    
    149      1     75      1      -7.500          -7.500    
    150      1     75    180       7.500           7.500    
    151      1     76      1      -7.500          -7.500    
    152      1     76    180       7.500           7.500    
    153      1     77      1      -7.500          -7.500    
    154      1     77    180       7.500           7.500    
    155      1     78      1      -7.500          -7.500    
    156      1     78    180       7.500           7.500    
    157      1     79      1      -7.500          -7.500    
    158      1     79    180       7.500           7.500    
    159      1     80      1      -7.500          -7.500    
    160      1     80    180       7.500           7.500    
    161      1     81      1      -7.500          -7.500    
    162      1     81    180       7.500           7.500    
    163      1     82      1      -7.500          -7.500    
    164      1     82    180       7.500           7.500    
    165      1     83      1      -7.500          -7.500    
    166      1     83    180       7.500           7.500    
    167      1     84      1      -7.500          -7.500    
    168      1     84    180       7.500           7.500    
    169      1     85      1      -7.500          -7.500    
    170      1     85    180       7.500           7.500    
    171      1     86      1      -7.500          -7.500    
    172      1     86    180       7.500           7.500    
    173      1     87      1      -7.500          -7.500    
    174      1     87    180       7.500           7.500    
    175      1     88      1      -7.500          -7.500    
    176      1     88    180       7.500           7.500    
    177      1     89      1      -7.500          -7.500    
    178      1     89    180       7.500           7.500    
    179      1     90      1      -7.500          -7.500    
    180      1     90    180       7.500           7.500    
    181      1     91      1      -7.500          -7.500    
    182      1     91    180       7.500           7.500    
    183      1     92      1      -7.500          -7.500    
    184      1     92    180       7.500           7.500    
    185      1     93      1      -7.500          -7.500    
    186      1     93    180       7.500           7.500    
    187      1     94      1      -7.500          -7.500    
    188      1     94    180       7.500           7.500    
    189      1     95      1      -7.500          -7.500    
    190      1     95    180       7.500           7.500    
    191      1     96      1      -7.500          -7.500    
    192      1     96    180       7.500           7.500    
    193      1     97      1      -7.500          -7.500    
    194      1     97    180       7.500           7.500    
    195      1     98      1      -7.500          -7.500    
    196      1     98    180       7.500           7.500    
    197      1     99      1      -7.500          -7.500    
    198      1     99    180       7.500           7.500    
    199      1    100      1      -7.500          -7.500    
    200      1    100    180       7.500           7.500    
    201      1    101      1      -7.500          -7.500    
    202      1    101    180       7.500           7.500    
    203      1    102      1      -7.500          -7.500    
    204      1    102    180       7.500           7.500    
    205      1    103      1      -7.500          -7.500    
    206      1    103    180       7.500           7.500    
    207      1    104      1      -7.500          -7.500    
    208      1    104    180       7.500           7.500    
    209      1    105      1      -7.500          -7.500    
    210      1    105    180       7.500           7.500    
    211      1    106      1      -7.500          -7.500    
    212      1    106    180       7.500           7.500    
    213      1    107      1      -7.500          -7.500    
    214      1    107    180       7.500           7.500    
    215      1    108      1      -7.500          -7.500    
    216      1    108    180       7.500           7.500    
    217      1    109      1      -7.500          -7.500    
    218      1    109    180       7.500           7.500    
    219      1    110      1      -7.500          -7.500    
    220      1    110    180       7.500           7.500    
    221      1    111      1      -7.500          -7.500    
    222      1    111    180       7.500           7.500    
    223      1    112      1      -7.500          -7.500    
    224      1    112    180       7.500           7.500    
    225      1    113      1      -7.500          -7.500    
    226      1    113    180       7.500           7.500    
    227      1    114      1      -7.500          -7.500    
    228      1    114    180       7.500           7.500    
    229      1    115      1      -7.500          -7.500    
    230      1    115    180       7.500           7.500    
    231      1    116      1      -7.500          -7.500    
    232      1    116    180       7.500           7.500    
    233      1    117      1      -7.500          -7.500    
    234      1    117    180       7.500           7.500    
    235      1    118      1      -7.500          -7.500    
    236      1    118    180       7.500           7.500    
    237      1    119      1      -7.500          -7.500    
    238      1    119    180       7.500           7.500    
    239      1    120      1      -7.500          -7.500    
    240      1    120    180       7.500           7.500    
    241      1    121      1      -7.500          -7.500    
    242      1    121    180       7.500           7.500    
    243      1    122      1      -7.500          -7.500    
    244      1    122    180       7.500           7.500    
    245      1    123      1      -7.500          -7.500    
    246      1    123    180       7.500           7.500    
    247      1    124      1      -7.500          -7.500    
    248      1    124    180       7.500           7.500    
    249      1    125      1      -7.500          -7.500    
    250      1    125    180       7.500           7.500    
    251      1    126      1      -7.500          -7.500    
    252      1    126    180       7.500           7.500    
    253      1    127      1      -7.500          -7.500    
    254      1    127    180       7.500           7.500    
    255      1    128      1      -7.500          -7.500    
    256      1    128    180       7.500           7.500    
    257      1    129      1      -7.500          -7.500    
    258      1    129    180       7.500           7.500    
    259      1    130      1      -7.500          -7.500    
    260      1    130    180       7.500           7.500    
    261      1    131      1      -7.500          -7.500    
    262      1    131    180       7.500           7.500    
    263      1    132      1      -7.500          -7.500    
    264      1    132    180       7.500           7.500    
    265      1    133      1      -7.500          -7.500    
    266      1    133    180       7.500           7.500    
    267      1    134      1      -7.500          -7.500    
    268      1    134    180       7.500           7.500    
    269      1    135      1      -7.500          -7.500    
    270      1    135    180       7.500           7.500    
    271      1    136      1      -7.500          -7.500    
    272      1    136    180       7.500           7.500    
    273      1    137      1      -7.500          -7.500    
    274      1    137    180       7.500           7.500    
    275      1    138      1      -7.500          -7.500    
    276      1    138    180       7.500           7.500    
    277      1    139      1      -7.500          -7.500    
    278      1    139    180       7.500           7.500    
    279      1    140      1      -7.500          -7.500    
    280      1    140    180       7.500           7.500    
    281      1    141      1      -7.500          -7.500    
    282      1    141    180       7.500           7.500    
    283      1    142      1      -7.500          -7.500    
    284      1    142    180       7.500           7.500    
    285      1    143      1      -7.500          -7.500    
    286      1    143    180       7.500           7.500    
    287      1    144      1      -7.500          -7.500    
    288      1    144    180       7.500           7.500    
    289      1    145      1      -7.500          -7.500    
    290      1    145    180       7.500           7.500    
    291      1    146      1      -7.500          -7.500    
    292      1    146    180       7.500           7.500    
    293      1    147      1      -7.500          -7.500    
    294      1    147    180       7.500           7.500    
    295      1    148      1      -7.500          -7.500    
    296      1    148    180       7.500           7.500    
    297      1    149      1      -7.500          -7.500    
    298      1    149    180       7.500           7.500    
    299      1    150      1      -7.500          -7.500    
    300      1    150    180       7.500           7.500    
    301      1    151      1      -7.500          -7.500    
    302      1    151    180       7.500           7.500    
    303      1    152      1      -7.500          -7.500    
    304      1    152    180       7.500           7.500    
    305      1    153      1      -7.500          -7.500    
    306      1    153    180       7.500           7.500    
    307      1    154      1      -7.500          -7.500    
    308      1    154    180       7.500           7.500    
    309      1    155      1      -7.500          -7.500    
    310      1    155    180       7.500           7.500    
    311      1    156      1      -7.500          -7.500    
    312      1    156    180       7.500           7.500    
    313      1    157      1      -7.500          -7.500    
    314      1    157    180       7.500           7.500    
    315      1    158      1      -7.500          -7.500    
    316      1    158    180       7.500           7.500    
    317      1    159      1      -7.500          -7.500    
    318      1    159    180       7.500           7.500    
    319      1    160      1      -7.500          -7.500    
    320      1    160    180       7.500           7.500    
    321      1    161      1      -7.500          -7.500    
    322      1    161    180       7.500           7.500    
    323      1    162      1      -7.500          -7.500    
    324      1    162    180       7.500           7.500    
    325      1    163      1      -7.500          -7.500    
    326      1    163    180       7.500           7.500    
    327      1    164      1      -7.500          -7.500    
    328      1    164    180       7.500           7.500    
    329      1    165      1      -7.500          -7.500    
    330      1    165    180       7.500           7.500    
    331      1    166      1      -7.500          -7.500    
    332      1    166    180       7.500           7.500    
    333      1    167      1      -7.500          -7.500    
    334      1    167    180       7.500           7.500    
    335      1    168      1      -7.500          -7.500    
    336      1    168    180       7.500           7.500    
    337      1    169      1      -7.500          -7.500    
    338      1    169    180       7.500           7.500    
    339      1    170      1      -7.500          -7.500    
    340      1    170    180       7.500           7.500    
    341      1    171      1      -7.500          -7.500    
    342      1    171    180       7.500           7.500    
    343      1    172      1      -7.500          -7.500    
    344      1    172    180       7.500           7.500    
    345      1    173      1      -7.500          -7.500    
    346      1    173    180       7.500           7.500    
    347      1    174      1      -7.500          -7.500    
    348      1    174    180       7.500           7.500    
    349      1    175      1      -7.500          -7.500    
    350      1    175    180       7.500           7.500    
    351      1    176      1      -7.500          -7.500    
    352      1    176    180       7.500           7.500    
    353      1    177      1      -7.500          -7.500    
    354      1    177    180       7.500           7.500    
    355      1    178      1      -7.500          -7.500    
    356      1    178    180       7.500           7.500    
    357      1    179      1      -7.500          -7.500    
    358      1    179    180       7.500           7.500    
    359      1    180      1      -7.500          -7.500    
    360      1    180    180       7.500           7.500    


    360 TIME-VARIANT SPECIFIED-HEAD CELLS
 
 SOLVING FOR HEAD 

 OUTPUT CONTROL FOR STRESS PERIOD   12   TIME STEP    1
    SAVE HEAD FOR ALL LAYERS

 SAVING SATURATED THICKNESS AND FLOW TERMS ON UNIT   54 FOR MT3DMS
 BY THE LINK-MT3DMS PACKAGE V7 AT TIME STEP    1, STRESS PERIOD   12


 HEAD WILL BE SAVED ON UNIT   51 AT END OF TIME STEP    1, STRESS PERIOD   12
1
  VOLUMETRIC BUDGET FOR ENTIRE MODEL AT END OF TIME STEP    1, STRESS PERIOD  12
  ------------------------------------------------------------------------------

     CUMULATIVE VOLUMES      L**3       RATES FOR THIS TIME STEP      L**3/T
     ------------------                 ------------------------

           IN:                                      IN:
           ---                                      ---
             STORAGE =     1352927.8750               STORAGE =        1329.3961
       CONSTANT HEAD =     1478566.5000         CONSTANT HEAD =        2629.3928
               WELLS =      388109.9375                 WELLS =        1216.2588

            TOTAL IN =     3219604.5000              TOTAL IN =        5175.0479

          OUT:                                     OUT:
          ----                                     ----
             STORAGE =     1491613.7500               STORAGE =        2328.5166
       CONSTANT HEAD =     1524052.2500         CONSTANT HEAD =        2846.5310
               WELLS =      203937.9531                 WELLS =           0.0000

           TOTAL OUT =     3219604.0000             TOTAL OUT =        5175.0479

            IN - OUT =           0.5000              IN - OUT =           0.0000

 PERCENT DISCREPANCY =           0.00     PERCENT DISCREPANCY =           0.00






         TIME SUMMARY AT END OF TIME STEP    1 IN STRESS PERIOD   12
                    SECONDS     MINUTES      HOURS       DAYS        YEARS
                    -----------------------------------------------------------
   TIME STEP LENGTH 2.59200E+06  43200.      720.00      30.000     8.21355E-02
 STRESS PERIOD TIME 2.59200E+06  43200.      720.00      30.000     8.21355E-02
         TOTAL TIME 3.11040E+07 5.18400E+05  8640.0      360.00     0.98563    
1
1
                            STRESS PERIOD NO.   13, LENGTH =   30.00000    
                            -----------------------------------------------

                              NUMBER OF TIME STEPS =     1

                               MULTIPLIER FOR DELT =     1.000

                            INITIAL TIME STEP SIZE =   30.00000    

 WELL NO.  LAYER   ROW   COL   STRESS RATE         
 --------------------------------------------------
      1      1     91     91       1994.    

      1 WELL 

 CHD NO.   LAYER   ROW   COL    START HEAD        END HEAD         
 ------------------------------------------------------------------
      1      1      1      1      -7.500          -7.500    
      2      1      1    180       7.500           7.500    
      3      1      2      1      -7.500          -7.500    
      4      1      2    180       7.500           7.500    
      5      1      3      1      -7.500          -7.500    
      6      1      3    180       7.500           7.500    
      7      1      4      1      -7.500          -7.500    
      8      1      4    180       7.500           7.500    
      9      1      5      1      -7.500          -7.500    
     10      1      5    180       7.500           7.500    
     11      1      6      1      -7.500          -7.500    
     12      1      6    180       7.500           7.500    
     13      1      7      1      -7.500          -7.500    
     14      1      7    180       7.500           7.500    
     15      1      8      1      -7.500          -7.500    
     16      1      8    180       7.500           7.500    
     17      1      9      1      -7.500          -7.500    
     18      1      9    180       7.500           7.500    
     19      1     10      1      -7.500          -7.500    
     20      1     10    180       7.500           7.500    
     21      1     11      1      -7.500          -7.500    
     22      1     11    180       7.500           7.500    
     23      1     12      1      -7.500          -7.500    
     24      1     12    180       7.500           7.500    
     25      1     13      1      -7.500          -7.500    
     26      1     13    180       7.500           7.500    
     27      1     14      1      -7.500          -7.500    
     28      1     14    180       7.500           7.500    
     29      1     15      1      -7.500          -7.500    
     30      1     15    180       7.500           7.500    
     31      1     16      1      -7.500          -7.500    
     32      1     16    180       7.500           7.500    
     33      1     17      1      -7.500          -7.500    
     34      1     17    180       7.500           7.500    
     35      1     18      1      -7.500          -7.500    
     36      1     18    180       7.500           7.500    
     37      1     19      1      -7.500          -7.500    
     38      1     19    180       7.500           7.500    
     39      1     20      1      -7.500          -7.500    
     40      1     20    180       7.500           7.500    
     41      1     21      1      -7.500          -7.500    
     42      1     21    180       7.500           7.500    
     43      1     22      1      -7.500          -7.500    
     44      1     22    180       7.500           7.500    
     45      1     23      1      -7.500          -7.500    
     46      1     23    180       7.500           7.500    
     47      1     24      1      -7.500          -7.500    
     48      1     24    180       7.500           7.500    
     49      1     25      1      -7.500          -7.500    
     50      1     25    180       7.500           7.500    
     51      1     26      1      -7.500          -7.500    
     52      1     26    180       7.500           7.500    
     53      1     27      1      -7.500          -7.500    
     54      1     27    180       7.500           7.500    
     55      1     28      1      -7.500          -7.500    
     56      1     28    180       7.500           7.500    
     57      1     29      1      -7.500          -7.500    
     58      1     29    180       7.500           7.500    
     59      1     30      1      -7.500          -7.500    
     60      1     30    180       7.500           7.500    
     61      1     31      1      -7.500          -7.500    
     62      1     31    180       7.500           7.500    
     63      1     32      1      -7.500          -7.500    
     64      1     32    180       7.500           7.500    
     65      1     33      1      -7.500          -7.500    
     66      1     33    180       7.500           7.500    
     67      1     34      1      -7.500          -7.500    
     68      1     34    180       7.500           7.500    
     69      1     35      1      -7.500          -7.500    
     70      1     35    180       7.500           7.500    
     71      1     36      1      -7.500          -7.500    
     72      1     36    180       7.500           7.500    
     73      1     37      1      -7.500          -7.500    
     74      1     37    180       7.500           7.500    
     75      1     38      1      -7.500          -7.500    
     76      1     38    180       7.500           7.500    
     77      1     39      1      -7.500          -7.500    
     78      1     39    180       7.500           7.500    
     79      1     40      1      -7.500          -7.500    
     80      1     40    180       7.500           7.500    
     81      1     41      1      -7.500          -7.500    
     82      1     41    180       7.500           7.500    
     83      1     42      1      -7.500          -7.500    
     84      1     42    180       7.500           7.500    
     85      1     43      1      -7.500          -7.500    
     86      1     43    180       7.500           7.500    
     87      1     44      1      -7.500          -7.500    
     88      1     44    180       7.500           7.500    
     89      1     45      1      -7.500          -7.500    
     90      1     45    180       7.500           7.500    
     91      1     46      1      -7.500          -7.500    
     92      1     46    180       7.500           7.500    
     93      1     47      1      -7.500          -7.500    
     94      1     47    180       7.500           7.500    
     95      1     48      1      -7.500          -7.500    
     96      1     48    180       7.500           7.500    
     97      1     49      1      -7.500          -7.500    
     98      1     49    180       7.500           7.500    
     99      1     50      1      -7.500          -7.500    
    100      1     50    180       7.500           7.500    
    101      1     51      1      -7.500          -7.500    
    102      1     51    180       7.500           7.500    
    103      1     52      1      -7.500          -7.500    
    104      1     52    180       7.500           7.500    
    105      1     53      1      -7.500          -7.500    
    106      1     53    180       7.500           7.500    
    107      1     54      1      -7.500          -7.500    
    108      1     54    180       7.500           7.500    
    109      1     55      1      -7.500          -7.500    
    110      1     55    180       7.500           7.500    
    111      1     56      1      -7.500          -7.500    
    112      1     56    180       7.500           7.500    
    113      1     57      1      -7.500          -7.500    
    114      1     57    180       7.500           7.500    
    115      1     58      1      -7.500          -7.500    
    116      1     58    180       7.500           7.500    
    117      1     59      1      -7.500          -7.500    
    118      1     59    180       7.500           7.500    
    119      1     60      1      -7.500          -7.500    
    120      1     60    180       7.500           7.500    
    121      1     61      1      -7.500          -7.500    
    122      1     61    180       7.500           7.500    
    123      1     62      1      -7.500          -7.500    
    124      1     62    180       7.500           7.500    
    125      1     63      1      -7.500          -7.500    
    126      1     63    180       7.500           7.500    
    127      1     64      1      -7.500          -7.500    
    128      1     64    180       7.500           7.500    
    129      1     65      1      -7.500          -7.500    
    130      1     65    180       7.500           7.500    
    131      1     66      1      -7.500          -7.500    
    132      1     66    180       7.500           7.500    
    133      1     67      1      -7.500          -7.500    
    134      1     67    180       7.500           7.500    
    135      1     68      1      -7.500          -7.500    
    136      1     68    180       7.500           7.500    
    137      1     69      1      -7.500          -7.500    
    138      1     69    180       7.500           7.500    
    139      1     70      1      -7.500          -7.500    
    140      1     70    180       7.500           7.500    
    141      1     71      1      -7.500          -7.500    
    142      1     71    180       7.500           7.500    
    143      1     72      1      -7.500          -7.500    
    144      1     72    180       7.500           7.500    
    145      1     73      1      -7.500          -7.500    
    146      1     73    180       7.500           7.500    
    147      1     74      1      -7.500          -7.500    
    148      1     74    180       7.500           7.500    
    149      1     75      1      -7.500          -7.500    
    150      1     75    180       7.500           7.500    
    151      1     76      1      -7.500          -7.500    
    152      1     76    180       7.500           7.500    
    153      1     77      1      -7.500          -7.500    
    154      1     77    180       7.500           7.500    
    155      1     78      1      -7.500          -7.500    
    156      1     78    180       7.500           7.500    
    157      1     79      1      -7.500          -7.500    
    158      1     79    180       7.500           7.500    
    159      1     80      1      -7.500          -7.500    
    160      1     80    180       7.500           7.500    
    161      1     81      1      -7.500          -7.500    
    162      1     81    180       7.500           7.500    
    163      1     82      1      -7.500          -7.500    
    164      1     82    180       7.500           7.500    
    165      1     83      1      -7.500          -7.500    
    166      1     83    180       7.500           7.500    
    167      1     84      1      -7.500          -7.500    
    168      1     84    180       7.500           7.500    
    169      1     85      1      -7.500          -7.500    
    170      1     85    180       7.500           7.500    
    171      1     86      1      -7.500          -7.500    
    172      1     86    180       7.500           7.500    
    173      1     87      1      -7.500          -7.500    
    174      1     87    180       7.500           7.500    
    175      1     88      1      -7.500          -7.500    
    176      1     88    180       7.500           7.500    
    177      1     89      1      -7.500          -7.500    
    178      1     89    180       7.500           7.500    
    179      1     90      1      -7.500          -7.500    
    180      1     90    180       7.500           7.500    
    181      1     91      1      -7.500          -7.500    
    182      1     91    180       7.500           7.500    
    183      1     92      1      -7.500          -7.500    
    184      1     92    180       7.500           7.500    
    185      1     93      1      -7.500          -7.500    
    186      1     93    180       7.500           7.500    
    187      1     94      1      -7.500          -7.500    
    188      1     94    180       7.500           7.500    
    189      1     95      1      -7.500          -7.500    
    190      1     95    180       7.500           7.500    
    191      1     96      1      -7.500          -7.500    
    192      1     96    180       7.500           7.500    
    193      1     97      1      -7.500          -7.500    
    194      1     97    180       7.500           7.500    
    195      1     98      1      -7.500          -7.500    
    196      1     98    180       7.500           7.500    
    197      1     99      1      -7.500          -7.500    
    198      1     99    180       7.500           7.500    
    199      1    100      1      -7.500          -7.500    
    200      1    100    180       7.500           7.500    
    201      1    101      1      -7.500          -7.500    
    202      1    101    180       7.500           7.500    
    203      1    102      1      -7.500          -7.500    
    204      1    102    180       7.500           7.500    
    205      1    103      1      -7.500          -7.500    
    206      1    103    180       7.500           7.500    
    207      1    104      1      -7.500          -7.500    
    208      1    104    180       7.500           7.500    
    209      1    105      1      -7.500          -7.500    
    210      1    105    180       7.500           7.500    
    211      1    106      1      -7.500          -7.500    
    212      1    106    180       7.500           7.500    
    213      1    107      1      -7.500          -7.500    
    214      1    107    180       7.500           7.500    
    215      1    108      1      -7.500          -7.500    
    216      1    108    180       7.500           7.500    
    217      1    109      1      -7.500          -7.500    
    218      1    109    180       7.500           7.500    
    219      1    110      1      -7.500          -7.500    
    220      1    110    180       7.500           7.500    
    221      1    111      1      -7.500          -7.500    
    222      1    111    180       7.500           7.500    
    223      1    112      1      -7.500          -7.500    
    224      1    112    180       7.500           7.500    
    225      1    113      1      -7.500          -7.500    
    226      1    113    180       7.500           7.500    
    227      1    114      1      -7.500          -7.500    
    228      1    114    180       7.500           7.500    
    229      1    115      1      -7.500          -7.500    
    230      1    115    180       7.500           7.500    
    231      1    116      1      -7.500          -7.500    
    232      1    116    180       7.500           7.500    
    233      1    117      1      -7.500          -7.500    
    234      1    117    180       7.500           7.500    
    235      1    118      1      -7.500          -7.500    
    236      1    118    180       7.500           7.500    
    237      1    119      1      -7.500          -7.500    
    238      1    119    180       7.500           7.500    
    239      1    120      1      -7.500          -7.500    
    240      1    120    180       7.500           7.500    
    241      1    121      1      -7.500          -7.500    
    242      1    121    180       7.500           7.500    
    243      1    122      1      -7.500          -7.500    
    244      1    122    180       7.500           7.500    
    245      1    123      1      -7.500          -7.500    
    246      1    123    180       7.500           7.500    
    247      1    124      1      -7.500          -7.500    
    248      1    124    180       7.500           7.500    
    249      1    125      1      -7.500          -7.500    
    250      1    125    180       7.500           7.500    
    251      1    126      1      -7.500          -7.500    
    252      1    126    180       7.500           7.500    
    253      1    127      1      -7.500          -7.500    
    254      1    127    180       7.500           7.500    
    255      1    128      1      -7.500          -7.500    
    256      1    128    180       7.500           7.500    
    257      1    129      1      -7.500          -7.500    
    258      1    129    180       7.500           7.500    
    259      1    130      1      -7.500          -7.500    
    260      1    130    180       7.500           7.500    
    261      1    131      1      -7.500          -7.500    
    262      1    131    180       7.500           7.500    
    263      1    132      1      -7.500          -7.500    
    264      1    132    180       7.500           7.500    
    265      1    133      1      -7.500          -7.500    
    266      1    133    180       7.500           7.500    
    267      1    134      1      -7.500          -7.500    
    268      1    134    180       7.500           7.500    
    269      1    135      1      -7.500          -7.500    
    270      1    135    180       7.500           7.500    
    271      1    136      1      -7.500          -7.500    
    272      1    136    180       7.500           7.500    
    273      1    137      1      -7.500          -7.500    
    274      1    137    180       7.500           7.500    
    275      1    138      1      -7.500          -7.500    
    276      1    138    180       7.500           7.500    
    277      1    139      1      -7.500          -7.500    
    278      1    139    180       7.500           7.500    
    279      1    140      1      -7.500          -7.500    
    280      1    140    180       7.500           7.500    
    281      1    141      1      -7.500          -7.500    
    282      1    141    180       7.500           7.500    
    283      1    142      1      -7.500          -7.500    
    284      1    142    180       7.500           7.500    
    285      1    143      1      -7.500          -7.500    
    286      1    143    180       7.500           7.500    
    287      1    144      1      -7.500          -7.500    
    288      1    144    180       7.500           7.500    
    289      1    145      1      -7.500          -7.500    
    290      1    145    180       7.500           7.500    
    291      1    146      1      -7.500          -7.500    
    292      1    146    180       7.500           7.500    
    293      1    147      1      -7.500          -7.500    
    294      1    147    180       7.500           7.500    
    295      1    148      1      -7.500          -7.500    
    296      1    148    180       7.500           7.500    
    297      1    149      1      -7.500          -7.500    
    298      1    149    180       7.500           7.500    
    299      1    150      1      -7.500          -7.500    
    300      1    150    180       7.500           7.500    
    301      1    151      1      -7.500          -7.500    
    302      1    151    180       7.500           7.500    
    303      1    152      1      -7.500          -7.500    
    304      1    152    180       7.500           7.500    
    305      1    153      1      -7.500          -7.500    
    306      1    153    180       7.500           7.500    
    307      1    154      1      -7.500          -7.500    
    308      1    154    180       7.500           7.500    
    309      1    155      1      -7.500          -7.500    
    310      1    155    180       7.500           7.500    
    311      1    156      1      -7.500          -7.500    
    312      1    156    180       7.500           7.500    
    313      1    157      1      -7.500          -7.500    
    314      1    157    180       7.500           7.500    
    315      1    158      1      -7.500          -7.500    
    316      1    158    180       7.500           7.500    
    317      1    159      1      -7.500          -7.500    
    318      1    159    180       7.500           7.500    
    319      1    160      1      -7.500          -7.500    
    320      1    160    180       7.500           7.500    
    321      1    161      1      -7.500          -7.500    
    322      1    161    180       7.500           7.500    
    323      1    162      1      -7.500          -7.500    
    324      1    162    180       7.500           7.500    
    325      1    163      1      -7.500          -7.500    
    326      1    163    180       7.500           7.500    
    327      1    164      1      -7.500          -7.500    
    328      1    164    180       7.500           7.500    
    329      1    165      1      -7.500          -7.500    
    330      1    165    180       7.500           7.500    
    331      1    166      1      -7.500          -7.500    
    332      1    166    180       7.500           7.500    
    333      1    167      1      -7.500          -7.500    
    334      1    167    180       7.500           7.500    
    335      1    168      1      -7.500          -7.500    
    336      1    168    180       7.500           7.500    
    337      1    169      1      -7.500          -7.500    
    338      1    169    180       7.500           7.500    
    339      1    170      1      -7.500          -7.500    
    340      1    170    180       7.500           7.500    
    341      1    171      1      -7.500          -7.500    
    342      1    171    180       7.500           7.500    
    343      1    172      1      -7.500          -7.500    
    344      1    172    180       7.500           7.500    
    345      1    173      1      -7.500          -7.500    
    346      1    173    180       7.500           7.500    
    347      1    174      1      -7.500          -7.500    
    348      1    174    180       7.500           7.500    
    349      1    175      1      -7.500          -7.500    
    350      1    175    180       7.500           7.500    
    351      1    176      1      -7.500          -7.500    
    352      1    176    180       7.500           7.500    
    353      1    177      1      -7.500          -7.500    
    354      1    177    180       7.500           7.500    
    355      1    178      1      -7.500          -7.500    
    356      1    178    180       7.500           7.500    
    357      1    179      1      -7.500          -7.500    
    358      1    179    180       7.500           7.500    
    359      1    180      1      -7.500          -7.500    
    360      1    180    180       7.500           7.500    


    360 TIME-VARIANT SPECIFIED-HEAD CELLS
 
 SOLVING FOR HEAD 

 OUTPUT CONTROL FOR STRESS PERIOD   13   TIME STEP    1
    SAVE HEAD FOR ALL LAYERS

 SAVING SATURATED THICKNESS AND FLOW TERMS ON UNIT   54 FOR MT3DMS
 BY THE LINK-MT3DMS PACKAGE V7 AT TIME STEP    1, STRESS PERIOD   13


 HEAD WILL BE SAVED ON UNIT   51 AT END OF TIME STEP    1, STRESS PERIOD   13
1
  VOLUMETRIC BUDGET FOR ENTIRE MODEL AT END OF TIME STEP    1, STRESS PERIOD  13
  ------------------------------------------------------------------------------

     CUMULATIVE VOLUMES      L**3       RATES FOR THIS TIME STEP      L**3/T
     ------------------                 ------------------------

           IN:                                      IN:
           ---                                      ---
             STORAGE =     1379316.2500               STORAGE =         879.6123
       CONSTANT HEAD =     1554934.1250         CONSTANT HEAD =        2545.5859
               WELLS =      447916.5000                 WELLS =        1993.5521

            TOTAL IN =     3382167.0000              TOTAL IN =        5418.7505

          OUT:                                     OUT:
          ----                                     ----
             STORAGE =     1571430.6250               STORAGE =        2660.5632
       CONSTANT HEAD =     1606797.8750         CONSTANT HEAD =        2758.1870
               WELLS =      203937.9531                 WELLS =           0.0000

           TOTAL OUT =     3382166.5000             TOTAL OUT =        5418.7500

            IN - OUT =           0.5000              IN - OUT =       4.8828E-04

 PERCENT DISCREPANCY =           0.00     PERCENT DISCREPANCY =           0.00






         TIME SUMMARY AT END OF TIME STEP    1 IN STRESS PERIOD   13
                    SECONDS     MINUTES      HOURS       DAYS        YEARS
                    -----------------------------------------------------------
   TIME STEP LENGTH 2.59200E+06  43200.      720.00      30.000     8.21355E-02
 STRESS PERIOD TIME 2.59200E+06  43200.      720.00      30.000     8.21355E-02
         TOTAL TIME 3.36960E+07 5.61600E+05  9360.0      390.00      1.0678    
1
1
                            STRESS PERIOD NO.   14, LENGTH =   30.00000    
                            -----------------------------------------------

                              NUMBER OF TIME STEPS =     1

                               MULTIPLIER FOR DELT =     1.000

                            INITIAL TIME STEP SIZE =   30.00000    

 WELL NO.  LAYER   ROW   COL   STRESS RATE         
 --------------------------------------------------
      1      1     91     91      -2096.    

      1 WELL 

 CHD NO.   LAYER   ROW   COL    START HEAD        END HEAD         
 ------------------------------------------------------------------
      1      1      1      1      -7.500          -7.500    
      2      1      1    180       7.500           7.500    
      3      1      2      1      -7.500          -7.500    
      4      1      2    180       7.500           7.500    
      5      1      3      1      -7.500          -7.500    
      6      1      3    180       7.500           7.500    
      7      1      4      1      -7.500          -7.500    
      8      1      4    180       7.500           7.500    
      9      1      5      1      -7.500          -7.500    
     10      1      5    180       7.500           7.500    
     11      1      6      1      -7.500          -7.500    
     12      1      6    180       7.500           7.500    
     13      1      7      1      -7.500          -7.500    
     14      1      7    180       7.500           7.500    
     15      1      8      1      -7.500          -7.500    
     16      1      8    180       7.500           7.500    
     17      1      9      1      -7.500          -7.500    
     18      1      9    180       7.500           7.500    
     19      1     10      1      -7.500          -7.500    
     20      1     10    180       7.500           7.500    
     21      1     11      1      -7.500          -7.500    
     22      1     11    180       7.500           7.500    
     23      1     12      1      -7.500          -7.500    
     24      1     12    180       7.500           7.500    
     25      1     13      1      -7.500          -7.500    
     26      1     13    180       7.500           7.500    
     27      1     14      1      -7.500          -7.500    
     28      1     14    180       7.500           7.500    
     29      1     15      1      -7.500          -7.500    
     30      1     15    180       7.500           7.500    
     31      1     16      1      -7.500          -7.500    
     32      1     16    180       7.500           7.500    
     33      1     17      1      -7.500          -7.500    
     34      1     17    180       7.500           7.500    
     35      1     18      1      -7.500          -7.500    
     36      1     18    180       7.500           7.500    
     37      1     19      1      -7.500          -7.500    
     38      1     19    180       7.500           7.500    
     39      1     20      1      -7.500          -7.500    
     40      1     20    180       7.500           7.500    
     41      1     21      1      -7.500          -7.500    
     42      1     21    180       7.500           7.500    
     43      1     22      1      -7.500          -7.500    
     44      1     22    180       7.500           7.500    
     45      1     23      1      -7.500          -7.500    
     46      1     23    180       7.500           7.500    
     47      1     24      1      -7.500          -7.500    
     48      1     24    180       7.500           7.500    
     49      1     25      1      -7.500          -7.500    
     50      1     25    180       7.500           7.500    
     51      1     26      1      -7.500          -7.500    
     52      1     26    180       7.500           7.500    
     53      1     27      1      -7.500          -7.500    
     54      1     27    180       7.500           7.500    
     55      1     28      1      -7.500          -7.500    
     56      1     28    180       7.500           7.500    
     57      1     29      1      -7.500          -7.500    
     58      1     29    180       7.500           7.500    
     59      1     30      1      -7.500          -7.500    
     60      1     30    180       7.500           7.500    
     61      1     31      1      -7.500          -7.500    
     62      1     31    180       7.500           7.500    
     63      1     32      1      -7.500          -7.500    
     64      1     32    180       7.500           7.500    
     65      1     33      1      -7.500          -7.500    
     66      1     33    180       7.500           7.500    
     67      1     34      1      -7.500          -7.500    
     68      1     34    180       7.500           7.500    
     69      1     35      1      -7.500          -7.500    
     70      1     35    180       7.500           7.500    
     71      1     36      1      -7.500          -7.500    
     72      1     36    180       7.500           7.500    
     73      1     37      1      -7.500          -7.500    
     74      1     37    180       7.500           7.500    
     75      1     38      1      -7.500          -7.500    
     76      1     38    180       7.500           7.500    
     77      1     39      1      -7.500          -7.500    
     78      1     39    180       7.500           7.500    
     79      1     40      1      -7.500          -7.500    
     80      1     40    180       7.500           7.500    
     81      1     41      1      -7.500          -7.500    
     82      1     41    180       7.500           7.500    
     83      1     42      1      -7.500          -7.500    
     84      1     42    180       7.500           7.500    
     85      1     43      1      -7.500          -7.500    
     86      1     43    180       7.500           7.500    
     87      1     44      1      -7.500          -7.500    
     88      1     44    180       7.500           7.500    
     89      1     45      1      -7.500          -7.500    
     90      1     45    180       7.500           7.500    
     91      1     46      1      -7.500          -7.500    
     92      1     46    180       7.500           7.500    
     93      1     47      1      -7.500          -7.500    
     94      1     47    180       7.500           7.500    
     95      1     48      1      -7.500          -7.500    
     96      1     48    180       7.500           7.500    
     97      1     49      1      -7.500          -7.500    
     98      1     49    180       7.500           7.500    
     99      1     50      1      -7.500          -7.500    
    100      1     50    180       7.500           7.500    
    101      1     51      1      -7.500          -7.500    
    102      1     51    180       7.500           7.500    
    103      1     52      1      -7.500          -7.500    
    104      1     52    180       7.500           7.500    
    105      1     53      1      -7.500          -7.500    
    106      1     53    180       7.500           7.500    
    107      1     54      1      -7.500          -7.500    
    108      1     54    180       7.500           7.500    
    109      1     55      1      -7.500          -7.500    
    110      1     55    180       7.500           7.500    
    111      1     56      1      -7.500          -7.500    
    112      1     56    180       7.500           7.500    
    113      1     57      1      -7.500          -7.500    
    114      1     57    180       7.500           7.500    
    115      1     58      1      -7.500          -7.500    
    116      1     58    180       7.500           7.500    
    117      1     59      1      -7.500          -7.500    
    118      1     59    180       7.500           7.500    
    119      1     60      1      -7.500          -7.500    
    120      1     60    180       7.500           7.500    
    121      1     61      1      -7.500          -7.500    
    122      1     61    180       7.500           7.500    
    123      1     62      1      -7.500          -7.500    
    124      1     62    180       7.500           7.500    
    125      1     63      1      -7.500          -7.500    
    126      1     63    180       7.500           7.500    
    127      1     64      1      -7.500          -7.500    
    128      1     64    180       7.500           7.500    
    129      1     65      1      -7.500          -7.500    
    130      1     65    180       7.500           7.500    
    131      1     66      1      -7.500          -7.500    
    132      1     66    180       7.500           7.500    
    133      1     67      1      -7.500          -7.500    
    134      1     67    180       7.500           7.500    
    135      1     68      1      -7.500          -7.500    
    136      1     68    180       7.500           7.500    
    137      1     69      1      -7.500          -7.500    
    138      1     69    180       7.500           7.500    
    139      1     70      1      -7.500          -7.500    
    140      1     70    180       7.500           7.500    
    141      1     71      1      -7.500          -7.500    
    142      1     71    180       7.500           7.500    
    143      1     72      1      -7.500          -7.500    
    144      1     72    180       7.500           7.500    
    145      1     73      1      -7.500          -7.500    
    146      1     73    180       7.500           7.500    
    147      1     74      1      -7.500          -7.500    
    148      1     74    180       7.500           7.500    
    149      1     75      1      -7.500          -7.500    
    150      1     75    180       7.500           7.500    
    151      1     76      1      -7.500          -7.500    
    152      1     76    180       7.500           7.500    
    153      1     77      1      -7.500          -7.500    
    154      1     77    180       7.500           7.500    
    155      1     78      1      -7.500          -7.500    
    156      1     78    180       7.500           7.500    
    157      1     79      1      -7.500          -7.500    
    158      1     79    180       7.500           7.500    
    159      1     80      1      -7.500          -7.500    
    160      1     80    180       7.500           7.500    
    161      1     81      1      -7.500          -7.500    
    162      1     81    180       7.500           7.500    
    163      1     82      1      -7.500          -7.500    
    164      1     82    180       7.500           7.500    
    165      1     83      1      -7.500          -7.500    
    166      1     83    180       7.500           7.500    
    167      1     84      1      -7.500          -7.500    
    168      1     84    180       7.500           7.500    
    169      1     85      1      -7.500          -7.500    
    170      1     85    180       7.500           7.500    
    171      1     86      1      -7.500          -7.500    
    172      1     86    180       7.500           7.500    
    173      1     87      1      -7.500          -7.500    
    174      1     87    180       7.500           7.500    
    175      1     88      1      -7.500          -7.500    
    176      1     88    180       7.500           7.500    
    177      1     89      1      -7.500          -7.500    
    178      1     89    180       7.500           7.500    
    179      1     90      1      -7.500          -7.500    
    180      1     90    180       7.500           7.500    
    181      1     91      1      -7.500          -7.500    
    182      1     91    180       7.500           7.500    
    183      1     92      1      -7.500          -7.500    
    184      1     92    180       7.500           7.500    
    185      1     93      1      -7.500          -7.500    
    186      1     93    180       7.500           7.500    
    187      1     94      1      -7.500          -7.500    
    188      1     94    180       7.500           7.500    
    189      1     95      1      -7.500          -7.500    
    190      1     95    180       7.500           7.500    
    191      1     96      1      -7.500          -7.500    
    192      1     96    180       7.500           7.500    
    193      1     97      1      -7.500          -7.500    
    194      1     97    180       7.500           7.500    
    195      1     98      1      -7.500          -7.500    
    196      1     98    180       7.500           7.500    
    197      1     99      1      -7.500          -7.500    
    198      1     99    180       7.500           7.500    
    199      1    100      1      -7.500          -7.500    
    200      1    100    180       7.500           7.500    
    201      1    101      1      -7.500          -7.500    
    202      1    101    180       7.500           7.500    
    203      1    102      1      -7.500          -7.500    
    204      1    102    180       7.500           7.500    
    205      1    103      1      -7.500          -7.500    
    206      1    103    180       7.500           7.500    
    207      1    104      1      -7.500          -7.500    
    208      1    104    180       7.500           7.500    
    209      1    105      1      -7.500          -7.500    
    210      1    105    180       7.500           7.500    
    211      1    106      1      -7.500          -7.500    
    212      1    106    180       7.500           7.500    
    213      1    107      1      -7.500          -7.500    
    214      1    107    180       7.500           7.500    
    215      1    108      1      -7.500          -7.500    
    216      1    108    180       7.500           7.500    
    217      1    109      1      -7.500          -7.500    
    218      1    109    180       7.500           7.500    
    219      1    110      1      -7.500          -7.500    
    220      1    110    180       7.500           7.500    
    221      1    111      1      -7.500          -7.500    
    222      1    111    180       7.500           7.500    
    223      1    112      1      -7.500          -7.500    
    224      1    112    180       7.500           7.500    
    225      1    113      1      -7.500          -7.500    
    226      1    113    180       7.500           7.500    
    227      1    114      1      -7.500          -7.500    
    228      1    114    180       7.500           7.500    
    229      1    115      1      -7.500          -7.500    
    230      1    115    180       7.500           7.500    
    231      1    116      1      -7.500          -7.500    
    232      1    116    180       7.500           7.500    
    233      1    117      1      -7.500          -7.500    
    234      1    117    180       7.500           7.500    
    235      1    118      1      -7.500          -7.500    
    236      1    118    180       7.500           7.500    
    237      1    119      1      -7.500          -7.500    
    238      1    119    180       7.500           7.500    
    239      1    120      1      -7.500          -7.500    
    240      1    120    180       7.500           7.500    
    241      1    121      1      -7.500          -7.500    
    242      1    121    180       7.500           7.500    
    243      1    122      1      -7.500          -7.500    
    244      1    122    180       7.500           7.500    
    245      1    123      1      -7.500          -7.500    
    246      1    123    180       7.500           7.500    
    247      1    124      1      -7.500          -7.500    
    248      1    124    180       7.500           7.500    
    249      1    125      1      -7.500          -7.500    
    250      1    125    180       7.500           7.500    
    251      1    126      1      -7.500          -7.500    
    252      1    126    180       7.500           7.500    
    253      1    127      1      -7.500          -7.500    
    254      1    127    180       7.500           7.500    
    255      1    128      1      -7.500          -7.500    
    256      1    128    180       7.500           7.500    
    257      1    129      1      -7.500          -7.500    
    258      1    129    180       7.500           7.500    
    259      1    130      1      -7.500          -7.500    
    260      1    130    180       7.500           7.500    
    261      1    131      1      -7.500          -7.500    
    262      1    131    180       7.500           7.500    
    263      1    132      1      -7.500          -7.500    
    264      1    132    180       7.500           7.500    
    265      1    133      1      -7.500          -7.500    
    266      1    133    180       7.500           7.500    
    267      1    134      1      -7.500          -7.500    
    268      1    134    180       7.500           7.500    
    269      1    135      1      -7.500          -7.500    
    270      1    135    180       7.500           7.500    
    271      1    136      1      -7.500          -7.500    
    272      1    136    180       7.500           7.500    
    273      1    137      1      -7.500          -7.500    
    274      1    137    180       7.500           7.500    
    275      1    138      1      -7.500          -7.500    
    276      1    138    180       7.500           7.500    
    277      1    139      1      -7.500          -7.500    
    278      1    139    180       7.500           7.500    
    279      1    140      1      -7.500          -7.500    
    280      1    140    180       7.500           7.500    
    281      1    141      1      -7.500          -7.500    
    282      1    141    180       7.500           7.500    
    283      1    142      1      -7.500          -7.500    
    284      1    142    180       7.500           7.500    
    285      1    143      1      -7.500          -7.500    
    286      1    143    180       7.500           7.500    
    287      1    144      1      -7.500          -7.500    
    288      1    144    180       7.500           7.500    
    289      1    145      1      -7.500          -7.500    
    290      1    145    180       7.500           7.500    
    291      1    146      1      -7.500          -7.500    
    292      1    146    180       7.500           7.500    
    293      1    147      1      -7.500          -7.500    
    294      1    147    180       7.500           7.500    
    295      1    148      1      -7.500          -7.500    
    296      1    148    180       7.500           7.500    
    297      1    149      1      -7.500          -7.500    
    298      1    149    180       7.500           7.500    
    299      1    150      1      -7.500          -7.500    
    300      1    150    180       7.500           7.500    
    301      1    151      1      -7.500          -7.500    
    302      1    151    180       7.500           7.500    
    303      1    152      1      -7.500          -7.500    
    304      1    152    180       7.500           7.500    
    305      1    153      1      -7.500          -7.500    
    306      1    153    180       7.500           7.500    
    307      1    154      1      -7.500          -7.500    
    308      1    154    180       7.500           7.500    
    309      1    155      1      -7.500          -7.500    
    310      1    155    180       7.500           7.500    
    311      1    156      1      -7.500          -7.500    
    312      1    156    180       7.500           7.500    
    313      1    157      1      -7.500          -7.500    
    314      1    157    180       7.500           7.500    
    315      1    158      1      -7.500          -7.500    
    316      1    158    180       7.500           7.500    
    317      1    159      1      -7.500          -7.500    
    318      1    159    180       7.500           7.500    
    319      1    160      1      -7.500          -7.500    
    320      1    160    180       7.500           7.500    
    321      1    161      1      -7.500          -7.500    
    322      1    161    180       7.500           7.500    
    323      1    162      1      -7.500          -7.500    
    324      1    162    180       7.500           7.500    
    325      1    163      1      -7.500          -7.500    
    326      1    163    180       7.500           7.500    
    327      1    164      1      -7.500          -7.500    
    328      1    164    180       7.500           7.500    
    329      1    165      1      -7.500          -7.500    
    330      1    165    180       7.500           7.500    
    331      1    166      1      -7.500          -7.500    
    332      1    166    180       7.500           7.500    
    333      1    167      1      -7.500          -7.500    
    334      1    167    180       7.500           7.500    
    335      1    168      1      -7.500          -7.500    
    336      1    168    180       7.500           7.500    
    337      1    169      1      -7.500          -7.500    
    338      1    169    180       7.500           7.500    
    339      1    170      1      -7.500          -7.500    
    340      1    170    180       7.500           7.500    
    341      1    171      1      -7.500          -7.500    
    342      1    171    180       7.500           7.500    
    343      1    172      1      -7.500          -7.500    
    344      1    172    180       7.500           7.500    
    345      1    173      1      -7.500          -7.500    
    346      1    173    180       7.500           7.500    
    347      1    174      1      -7.500          -7.500    
    348      1    174    180       7.500           7.500    
    349      1    175      1      -7.500          -7.500    
    350      1    175    180       7.500           7.500    
    351      1    176      1      -7.500          -7.500    
    352      1    176    180       7.500           7.500    
    353      1    177      1      -7.500          -7.500    
    354      1    177    180       7.500           7.500    
    355      1    178      1      -7.500          -7.500    
    356      1    178    180       7.500           7.500    
    357      1    179      1      -7.500          -7.500    
    358      1    179    180       7.500           7.500    
    359      1    180      1      -7.500          -7.500    
    360      1    180    180       7.500           7.500    


    360 TIME-VARIANT SPECIFIED-HEAD CELLS
 
 SOLVING FOR HEAD 

 OUTPUT CONTROL FOR STRESS PERIOD   14   TIME STEP    1
    SAVE HEAD FOR ALL LAYERS

 SAVING SATURATED THICKNESS AND FLOW TERMS ON UNIT   54 FOR MT3DMS
 BY THE LINK-MT3DMS PACKAGE V7 AT TIME STEP    1, STRESS PERIOD   14


 HEAD WILL BE SAVED ON UNIT   51 AT END OF TIME STEP    1, STRESS PERIOD   14
1
  VOLUMETRIC BUDGET FOR ENTIRE MODEL AT END OF TIME STEP    1, STRESS PERIOD  14
  ------------------------------------------------------------------------------

     CUMULATIVE VOLUMES      L**3       RATES FOR THIS TIME STEP      L**3/T
     ------------------                 ------------------------

           IN:                                      IN:
           ---                                      ---
             STORAGE =     1469319.5000               STORAGE =        3000.1084
       CONSTANT HEAD =     1629210.6250         CONSTANT HEAD =        2475.8850
               WELLS =      447916.5000                 WELLS =           0.0000

            TOTAL IN =     3546446.5000              TOTAL IN =        5475.9932

          OUT:                                     OUT:
          ----                                     ----
             STORAGE =     1592359.1250               STORAGE =         697.6178
       CONSTANT HEAD =     1687274.7500         CONSTANT HEAD =        2682.5608
               WELLS =      266812.4062                 WELLS =        2095.8149

           TOTAL OUT =     3546446.2500             TOTAL OUT =        5475.9937

            IN - OUT =           0.2500              IN - OUT =      -4.8828E-04

 PERCENT DISCREPANCY =           0.00     PERCENT DISCREPANCY =          -0.00






         TIME SUMMARY AT END OF TIME STEP    1 IN STRESS PERIOD   14
                    SECONDS     MINUTES      HOURS       DAYS        YEARS
                    -----------------------------------------------------------
   TIME STEP LENGTH 2.59200E+06  43200.      720.00      30.000     8.21355E-02
 STRESS PERIOD TIME 2.59200E+06  43200.      720.00      30.000     8.21355E-02
         TOTAL TIME 3.62880E+07 6.04800E+05  10080.      420.00      1.1499    
1
1
                            STRESS PERIOD NO.   15, LENGTH =   30.00000    
                            -----------------------------------------------

                              NUMBER OF TIME STEPS =     1

                               MULTIPLIER FOR DELT =     1.000

                            INITIAL TIME STEP SIZE =   30.00000    

 WELL NO.  LAYER   ROW   COL   STRESS RATE         
 --------------------------------------------------
      1      1     91     91      -1330.    

      1 WELL 

 CHD NO.   LAYER   ROW   COL    START HEAD        END HEAD         
 ------------------------------------------------------------------
      1      1      1      1      -7.500          -7.500    
      2      1      1    180       7.500           7.500    
      3      1      2      1      -7.500          -7.500    
      4      1      2    180       7.500           7.500    
      5      1      3      1      -7.500          -7.500    
      6      1      3    180       7.500           7.500    
      7      1      4      1      -7.500          -7.500    
      8      1      4    180       7.500           7.500    
      9      1      5      1      -7.500          -7.500    
     10      1      5    180       7.500           7.500    
     11      1      6      1      -7.500          -7.500    
     12      1      6    180       7.500           7.500    
     13      1      7      1      -7.500          -7.500    
     14      1      7    180       7.500           7.500    
     15      1      8      1      -7.500          -7.500    
     16      1      8    180       7.500           7.500    
     17      1      9      1      -7.500          -7.500    
     18      1      9    180       7.500           7.500    
     19      1     10      1      -7.500          -7.500    
     20      1     10    180       7.500           7.500    
     21      1     11      1      -7.500          -7.500    
     22      1     11    180       7.500           7.500    
     23      1     12      1      -7.500          -7.500    
     24      1     12    180       7.500           7.500    
     25      1     13      1      -7.500          -7.500    
     26      1     13    180       7.500           7.500    
     27      1     14      1      -7.500          -7.500    
     28      1     14    180       7.500           7.500    
     29      1     15      1      -7.500          -7.500    
     30      1     15    180       7.500           7.500    
     31      1     16      1      -7.500          -7.500    
     32      1     16    180       7.500           7.500    
     33      1     17      1      -7.500          -7.500    
     34      1     17    180       7.500           7.500    
     35      1     18      1      -7.500          -7.500    
     36      1     18    180       7.500           7.500    
     37      1     19      1      -7.500          -7.500    
     38      1     19    180       7.500           7.500    
     39      1     20      1      -7.500          -7.500    
     40      1     20    180       7.500           7.500    
     41      1     21      1      -7.500          -7.500    
     42      1     21    180       7.500           7.500    
     43      1     22      1      -7.500          -7.500    
     44      1     22    180       7.500           7.500    
     45      1     23      1      -7.500          -7.500    
     46      1     23    180       7.500           7.500    
     47      1     24      1      -7.500          -7.500    
     48      1     24    180       7.500           7.500    
     49      1     25      1      -7.500          -7.500    
     50      1     25    180       7.500           7.500    
     51      1     26      1      -7.500          -7.500    
     52      1     26    180       7.500           7.500    
     53      1     27      1      -7.500          -7.500    
     54      1     27    180       7.500           7.500    
     55      1     28      1      -7.500          -7.500    
     56      1     28    180       7.500           7.500    
     57      1     29      1      -7.500          -7.500    
     58      1     29    180       7.500           7.500    
     59      1     30      1      -7.500          -7.500    
     60      1     30    180       7.500           7.500    
     61      1     31      1      -7.500          -7.500    
     62      1     31    180       7.500           7.500    
     63      1     32      1      -7.500          -7.500    
     64      1     32    180       7.500           7.500    
     65      1     33      1      -7.500          -7.500    
     66      1     33    180       7.500           7.500    
     67      1     34      1      -7.500          -7.500    
     68      1     34    180       7.500           7.500    
     69      1     35      1      -7.500          -7.500    
     70      1     35    180       7.500           7.500    
     71      1     36      1      -7.500          -7.500    
     72      1     36    180       7.500           7.500    
     73      1     37      1      -7.500          -7.500    
     74      1     37    180       7.500           7.500    
     75      1     38      1      -7.500          -7.500    
     76      1     38    180       7.500           7.500    
     77      1     39      1      -7.500          -7.500    
     78      1     39    180       7.500           7.500    
     79      1     40      1      -7.500          -7.500    
     80      1     40    180       7.500           7.500    
     81      1     41      1      -7.500          -7.500    
     82      1     41    180       7.500           7.500    
     83      1     42      1      -7.500          -7.500    
     84      1     42    180       7.500           7.500    
     85      1     43      1      -7.500          -7.500    
     86      1     43    180       7.500           7.500    
     87      1     44      1      -7.500          -7.500    
     88      1     44    180       7.500           7.500    
     89      1     45      1      -7.500          -7.500    
     90      1     45    180       7.500           7.500    
     91      1     46      1      -7.500          -7.500    
     92      1     46    180       7.500           7.500    
     93      1     47      1      -7.500          -7.500    
     94      1     47    180       7.500           7.500    
     95      1     48      1      -7.500          -7.500    
     96      1     48    180       7.500           7.500    
     97      1     49      1      -7.500          -7.500    
     98      1     49    180       7.500           7.500    
     99      1     50      1      -7.500          -7.500    
    100      1     50    180       7.500           7.500    
    101      1     51      1      -7.500          -7.500    
    102      1     51    180       7.500           7.500    
    103      1     52      1      -7.500          -7.500    
    104      1     52    180       7.500           7.500    
    105      1     53      1      -7.500          -7.500    
    106      1     53    180       7.500           7.500    
    107      1     54      1      -7.500          -7.500    
    108      1     54    180       7.500           7.500    
    109      1     55      1      -7.500          -7.500    
    110      1     55    180       7.500           7.500    
    111      1     56      1      -7.500          -7.500    
    112      1     56    180       7.500           7.500    
    113      1     57      1      -7.500          -7.500    
    114      1     57    180       7.500           7.500    
    115      1     58      1      -7.500          -7.500    
    116      1     58    180       7.500           7.500    
    117      1     59      1      -7.500          -7.500    
    118      1     59    180       7.500           7.500    
    119      1     60      1      -7.500          -7.500    
    120      1     60    180       7.500           7.500    
    121      1     61      1      -7.500          -7.500    
    122      1     61    180       7.500           7.500    
    123      1     62      1      -7.500          -7.500    
    124      1     62    180       7.500           7.500    
    125      1     63      1      -7.500          -7.500    
    126      1     63    180       7.500           7.500    
    127      1     64      1      -7.500          -7.500    
    128      1     64    180       7.500           7.500    
    129      1     65      1      -7.500          -7.500    
    130      1     65    180       7.500           7.500    
    131      1     66      1      -7.500          -7.500    
    132      1     66    180       7.500           7.500    
    133      1     67      1      -7.500          -7.500    
    134      1     67    180       7.500           7.500    
    135      1     68      1      -7.500          -7.500    
    136      1     68    180       7.500           7.500    
    137      1     69      1      -7.500          -7.500    
    138      1     69    180       7.500           7.500    
    139      1     70      1      -7.500          -7.500    
    140      1     70    180       7.500           7.500    
    141      1     71      1      -7.500          -7.500    
    142      1     71    180       7.500           7.500    
    143      1     72      1      -7.500          -7.500    
    144      1     72    180       7.500           7.500    
    145      1     73      1      -7.500          -7.500    
    146      1     73    180       7.500           7.500    
    147      1     74      1      -7.500          -7.500    
    148      1     74    180       7.500           7.500    
    149      1     75      1      -7.500          -7.500    
    150      1     75    180       7.500           7.500    
    151      1     76      1      -7.500          -7.500    
    152      1     76    180       7.500           7.500    
    153      1     77      1      -7.500          -7.500    
    154      1     77    180       7.500           7.500    
    155      1     78      1      -7.500          -7.500    
    156      1     78    180       7.500           7.500    
    157      1     79      1      -7.500          -7.500    
    158      1     79    180       7.500           7.500    
    159      1     80      1      -7.500          -7.500    
    160      1     80    180       7.500           7.500    
    161      1     81      1      -7.500          -7.500    
    162      1     81    180       7.500           7.500    
    163      1     82      1      -7.500          -7.500    
    164      1     82    180       7.500           7.500    
    165      1     83      1      -7.500          -7.500    
    166      1     83    180       7.500           7.500    
    167      1     84      1      -7.500          -7.500    
    168      1     84    180       7.500           7.500    
    169      1     85      1      -7.500          -7.500    
    170      1     85    180       7.500           7.500    
    171      1     86      1      -7.500          -7.500    
    172      1     86    180       7.500           7.500    
    173      1     87      1      -7.500          -7.500    
    174      1     87    180       7.500           7.500    
    175      1     88      1      -7.500          -7.500    
    176      1     88    180       7.500           7.500    
    177      1     89      1      -7.500          -7.500    
    178      1     89    180       7.500           7.500    
    179      1     90      1      -7.500          -7.500    
    180      1     90    180       7.500           7.500    
    181      1     91      1      -7.500          -7.500    
    182      1     91    180       7.500           7.500    
    183      1     92      1      -7.500          -7.500    
    184      1     92    180       7.500           7.500    
    185      1     93      1      -7.500          -7.500    
    186      1     93    180       7.500           7.500    
    187      1     94      1      -7.500          -7.500    
    188      1     94    180       7.500           7.500    
    189      1     95      1      -7.500          -7.500    
    190      1     95    180       7.500           7.500    
    191      1     96      1      -7.500          -7.500    
    192      1     96    180       7.500           7.500    
    193      1     97      1      -7.500          -7.500    
    194      1     97    180       7.500           7.500    
    195      1     98      1      -7.500          -7.500    
    196      1     98    180       7.500           7.500    
    197      1     99      1      -7.500          -7.500    
    198      1     99    180       7.500           7.500    
    199      1    100      1      -7.500          -7.500    
    200      1    100    180       7.500           7.500    
    201      1    101      1      -7.500          -7.500    
    202      1    101    180       7.500           7.500    
    203      1    102      1      -7.500          -7.500    
    204      1    102    180       7.500           7.500    
    205      1    103      1      -7.500          -7.500    
    206      1    103    180       7.500           7.500    
    207      1    104      1      -7.500          -7.500    
    208      1    104    180       7.500           7.500    
    209      1    105      1      -7.500          -7.500    
    210      1    105    180       7.500           7.500    
    211      1    106      1      -7.500          -7.500    
    212      1    106    180       7.500           7.500    
    213      1    107      1      -7.500          -7.500    
    214      1    107    180       7.500           7.500    
    215      1    108      1      -7.500          -7.500    
    216      1    108    180       7.500           7.500    
    217      1    109      1      -7.500          -7.500    
    218      1    109    180       7.500           7.500    
    219      1    110      1      -7.500          -7.500    
    220      1    110    180       7.500           7.500    
    221      1    111      1      -7.500          -7.500    
    222      1    111    180       7.500           7.500    
    223      1    112      1      -7.500          -7.500    
    224      1    112    180       7.500           7.500    
    225      1    113      1      -7.500          -7.500    
    226      1    113    180       7.500           7.500    
    227      1    114      1      -7.500          -7.500    
    228      1    114    180       7.500           7.500    
    229      1    115      1      -7.500          -7.500    
    230      1    115    180       7.500           7.500    
    231      1    116      1      -7.500          -7.500    
    232      1    116    180       7.500           7.500    
    233      1    117      1      -7.500          -7.500    
    234      1    117    180       7.500           7.500    
    235      1    118      1      -7.500          -7.500    
    236      1    118    180       7.500           7.500    
    237      1    119      1      -7.500          -7.500    
    238      1    119    180       7.500           7.500    
    239      1    120      1      -7.500          -7.500    
    240      1    120    180       7.500           7.500    
    241      1    121      1      -7.500          -7.500    
    242      1    121    180       7.500           7.500    
    243      1    122      1      -7.500          -7.500    
    244      1    122    180       7.500           7.500    
    245      1    123      1      -7.500          -7.500    
    246      1    123    180       7.500           7.500    
    247      1    124      1      -7.500          -7.500    
    248      1    124    180       7.500           7.500    
    249      1    125      1      -7.500          -7.500    
    250      1    125    180       7.500           7.500    
    251      1    126      1      -7.500          -7.500    
    252      1    126    180       7.500           7.500    
    253      1    127      1      -7.500          -7.500    
    254      1    127    180       7.500           7.500    
    255      1    128      1      -7.500          -7.500    
    256      1    128    180       7.500           7.500    
    257      1    129      1      -7.500          -7.500    
    258      1    129    180       7.500           7.500    
    259      1    130      1      -7.500          -7.500    
    260      1    130    180       7.500           7.500    
    261      1    131      1      -7.500          -7.500    
    262      1    131    180       7.500           7.500    
    263      1    132      1      -7.500          -7.500    
    264      1    132    180       7.500           7.500    
    265      1    133      1      -7.500          -7.500    
    266      1    133    180       7.500           7.500    
    267      1    134      1      -7.500          -7.500    
    268      1    134    180       7.500           7.500    
    269      1    135      1      -7.500          -7.500    
    270      1    135    180       7.500           7.500    
    271      1    136      1      -7.500          -7.500    
    272      1    136    180       7.500           7.500    
    273      1    137      1      -7.500          -7.500    
    274      1    137    180       7.500           7.500    
    275      1    138      1      -7.500          -7.500    
    276      1    138    180       7.500           7.500    
    277      1    139      1      -7.500          -7.500    
    278      1    139    180       7.500           7.500    
    279      1    140      1      -7.500          -7.500    
    280      1    140    180       7.500           7.500    
    281      1    141      1      -7.500          -7.500    
    282      1    141    180       7.500           7.500    
    283      1    142      1      -7.500          -7.500    
    284      1    142    180       7.500           7.500    
    285      1    143      1      -7.500          -7.500    
    286      1    143    180       7.500           7.500    
    287      1    144      1      -7.500          -7.500    
    288      1    144    180       7.500           7.500    
    289      1    145      1      -7.500          -7.500    
    290      1    145    180       7.500           7.500    
    291      1    146      1      -7.500          -7.500    
    292      1    146    180       7.500           7.500    
    293      1    147      1      -7.500          -7.500    
    294      1    147    180       7.500           7.500    
    295      1    148      1      -7.500          -7.500    
    296      1    148    180       7.500           7.500    
    297      1    149      1      -7.500          -7.500    
    298      1    149    180       7.500           7.500    
    299      1    150      1      -7.500          -7.500    
    300      1    150    180       7.500           7.500    
    301      1    151      1      -7.500          -7.500    
    302      1    151    180       7.500           7.500    
    303      1    152      1      -7.500          -7.500    
    304      1    152    180       7.500           7.500    
    305      1    153      1      -7.500          -7.500    
    306      1    153    180       7.500           7.500    
    307      1    154      1      -7.500          -7.500    
    308      1    154    180       7.500           7.500    
    309      1    155      1      -7.500          -7.500    
    310      1    155    180       7.500           7.500    
    311      1    156      1      -7.500          -7.500    
    312      1    156    180       7.500           7.500    
    313      1    157      1      -7.500          -7.500    
    314      1    157    180       7.500           7.500    
    315      1    158      1      -7.500          -7.500    
    316      1    158    180       7.500           7.500    
    317      1    159      1      -7.500          -7.500    
    318      1    159    180       7.500           7.500    
    319      1    160      1      -7.500          -7.500    
    320      1    160    180       7.500           7.500    
    321      1    161      1      -7.500          -7.500    
    322      1    161    180       7.500           7.500    
    323      1    162      1      -7.500          -7.500    
    324      1    162    180       7.500           7.500    
    325      1    163      1      -7.500          -7.500    
    326      1    163    180       7.500           7.500    
    327      1    164      1      -7.500          -7.500    
    328      1    164    180       7.500           7.500    
    329      1    165      1      -7.500          -7.500    
    330      1    165    180       7.500           7.500    
    331      1    166      1      -7.500          -7.500    
    332      1    166    180       7.500           7.500    
    333      1    167      1      -7.500          -7.500    
    334      1    167    180       7.500           7.500    
    335      1    168      1      -7.500          -7.500    
    336      1    168    180       7.500           7.500    
    337      1    169      1      -7.500          -7.500    
    338      1    169    180       7.500           7.500    
    339      1    170      1      -7.500          -7.500    
    340      1    170    180       7.500           7.500    
    341      1    171      1      -7.500          -7.500    
    342      1    171    180       7.500           7.500    
    343      1    172      1      -7.500          -7.500    
    344      1    172    180       7.500           7.500    
    345      1    173      1      -7.500          -7.500    
    346      1    173    180       7.500           7.500    
    347      1    174      1      -7.500          -7.500    
    348      1    174    180       7.500           7.500    
    349      1    175      1      -7.500          -7.500    
    350      1    175    180       7.500           7.500    
    351      1    176      1      -7.500          -7.500    
    352      1    176    180       7.500           7.500    
    353      1    177      1      -7.500          -7.500    
    354      1    177    180       7.500           7.500    
    355      1    178      1      -7.500          -7.500    
    356      1    178    180       7.500           7.500    
    357      1    179      1      -7.500          -7.500    
    358      1    179    180       7.500           7.500    
    359      1    180      1      -7.500          -7.500    
    360      1    180    180       7.500           7.500    


    360 TIME-VARIANT SPECIFIED-HEAD CELLS
 
 SOLVING FOR HEAD 

 OUTPUT CONTROL FOR STRESS PERIOD   15   TIME STEP    1
    SAVE HEAD FOR ALL LAYERS

 SAVING SATURATED THICKNESS AND FLOW TERMS ON UNIT   54 FOR MT3DMS
 BY THE LINK-MT3DMS PACKAGE V7 AT TIME STEP    1, STRESS PERIOD   15


 HEAD WILL BE SAVED ON UNIT   51 AT END OF TIME STEP    1, STRESS PERIOD   15
1
  VOLUMETRIC BUDGET FOR ENTIRE MODEL AT END OF TIME STEP    1, STRESS PERIOD  15
  ------------------------------------------------------------------------------

     CUMULATIVE VOLUMES      L**3       RATES FOR THIS TIME STEP      L**3/T
     ------------------                 ------------------------

           IN:                                      IN:
           ---                                      ---
             STORAGE =     1529847.6250               STORAGE =        2017.6039
       CONSTANT HEAD =     1701816.1250         CONSTANT HEAD =        2420.1848
               WELLS =      447916.5000                 WELLS =           0.0000

            TOTAL IN =     3679580.0000              TOTAL IN =        4437.7886

          OUT:                                     OUT:
          ----                                     ----
             STORAGE =     1607132.7500               STORAGE =         492.4550
       CONSTANT HEAD =     1765732.0000         CONSTANT HEAD =        2615.2429
               WELLS =      306715.1250                 WELLS =        1330.0912

           TOTAL OUT =     3679580.0000             TOTAL OUT =        4437.7891

            IN - OUT =           0.0000              IN - OUT =      -4.8828E-04

 PERCENT DISCREPANCY =           0.00     PERCENT DISCREPANCY =          -0.00






         TIME SUMMARY AT END OF TIME STEP    1 IN STRESS PERIOD   15
                    SECONDS     MINUTES      HOURS       DAYS        YEARS
                    -----------------------------------------------------------
   TIME STEP LENGTH 2.59200E+06  43200.      720.00      30.000     8.21355E-02
 STRESS PERIOD TIME 2.59200E+06  43200.      720.00      30.000     8.21355E-02
         TOTAL TIME 3.88800E+07 6.48000E+05  10800.      450.00      1.2320    
1
1
                            STRESS PERIOD NO.   16, LENGTH =   30.00000    
                            -----------------------------------------------

                              NUMBER OF TIME STEPS =     1

                               MULTIPLIER FOR DELT =     1.000

                            INITIAL TIME STEP SIZE =   30.00000    

 WELL NO.  LAYER   ROW   COL   STRESS RATE         
 --------------------------------------------------
      1      1     91     91      -805.8    

      1 WELL 

 CHD NO.   LAYER   ROW   COL    START HEAD        END HEAD         
 ------------------------------------------------------------------
      1      1      1      1      -7.500          -7.500    
      2      1      1    180       7.500           7.500    
      3      1      2      1      -7.500          -7.500    
      4      1      2    180       7.500           7.500    
      5      1      3      1      -7.500          -7.500    
      6      1      3    180       7.500           7.500    
      7      1      4      1      -7.500          -7.500    
      8      1      4    180       7.500           7.500    
      9      1      5      1      -7.500          -7.500    
     10      1      5    180       7.500           7.500    
     11      1      6      1      -7.500          -7.500    
     12      1      6    180       7.500           7.500    
     13      1      7      1      -7.500          -7.500    
     14      1      7    180       7.500           7.500    
     15      1      8      1      -7.500          -7.500    
     16      1      8    180       7.500           7.500    
     17      1      9      1      -7.500          -7.500    
     18      1      9    180       7.500           7.500    
     19      1     10      1      -7.500          -7.500    
     20      1     10    180       7.500           7.500    
     21      1     11      1      -7.500          -7.500    
     22      1     11    180       7.500           7.500    
     23      1     12      1      -7.500          -7.500    
     24      1     12    180       7.500           7.500    
     25      1     13      1      -7.500          -7.500    
     26      1     13    180       7.500           7.500    
     27      1     14      1      -7.500          -7.500    
     28      1     14    180       7.500           7.500    
     29      1     15      1      -7.500          -7.500    
     30      1     15    180       7.500           7.500    
     31      1     16      1      -7.500          -7.500    
     32      1     16    180       7.500           7.500    
     33      1     17      1      -7.500          -7.500    
     34      1     17    180       7.500           7.500    
     35      1     18      1      -7.500          -7.500    
     36      1     18    180       7.500           7.500    
     37      1     19      1      -7.500          -7.500    
     38      1     19    180       7.500           7.500    
     39      1     20      1      -7.500          -7.500    
     40      1     20    180       7.500           7.500    
     41      1     21      1      -7.500          -7.500    
     42      1     21    180       7.500           7.500    
     43      1     22      1      -7.500          -7.500    
     44      1     22    180       7.500           7.500    
     45      1     23      1      -7.500          -7.500    
     46      1     23    180       7.500           7.500    
     47      1     24      1      -7.500          -7.500    
     48      1     24    180       7.500           7.500    
     49      1     25      1      -7.500          -7.500    
     50      1     25    180       7.500           7.500    
     51      1     26      1      -7.500          -7.500    
     52      1     26    180       7.500           7.500    
     53      1     27      1      -7.500          -7.500    
     54      1     27    180       7.500           7.500    
     55      1     28      1      -7.500          -7.500    
     56      1     28    180       7.500           7.500    
     57      1     29      1      -7.500          -7.500    
     58      1     29    180       7.500           7.500    
     59      1     30      1      -7.500          -7.500    
     60      1     30    180       7.500           7.500    
     61      1     31      1      -7.500          -7.500    
     62      1     31    180       7.500           7.500    
     63      1     32      1      -7.500          -7.500    
     64      1     32    180       7.500           7.500    
     65      1     33      1      -7.500          -7.500    
     66      1     33    180       7.500           7.500    
     67      1     34      1      -7.500          -7.500    
     68      1     34    180       7.500           7.500    
     69      1     35      1      -7.500          -7.500    
     70      1     35    180       7.500           7.500    
     71      1     36      1      -7.500          -7.500    
     72      1     36    180       7.500           7.500    
     73      1     37      1      -7.500          -7.500    
     74      1     37    180       7.500           7.500    
     75      1     38      1      -7.500          -7.500    
     76      1     38    180       7.500           7.500    
     77      1     39      1      -7.500          -7.500    
     78      1     39    180       7.500           7.500    
     79      1     40      1      -7.500          -7.500    
     80      1     40    180       7.500           7.500    
     81      1     41      1      -7.500          -7.500    
     82      1     41    180       7.500           7.500    
     83      1     42      1      -7.500          -7.500    
     84      1     42    180       7.500           7.500    
     85      1     43      1      -7.500          -7.500    
     86      1     43    180       7.500           7.500    
     87      1     44      1      -7.500          -7.500    
     88      1     44    180       7.500           7.500    
     89      1     45      1      -7.500          -7.500    
     90      1     45    180       7.500           7.500    
     91      1     46      1      -7.500          -7.500    
     92      1     46    180       7.500           7.500    
     93      1     47      1      -7.500          -7.500    
     94      1     47    180       7.500           7.500    
     95      1     48      1      -7.500          -7.500    
     96      1     48    180       7.500           7.500    
     97      1     49      1      -7.500          -7.500    
     98      1     49    180       7.500           7.500    
     99      1     50      1      -7.500          -7.500    
    100      1     50    180       7.500           7.500    
    101      1     51      1      -7.500          -7.500    
    102      1     51    180       7.500           7.500    
    103      1     52      1      -7.500          -7.500    
    104      1     52    180       7.500           7.500    
    105      1     53      1      -7.500          -7.500    
    106      1     53    180       7.500           7.500    
    107      1     54      1      -7.500          -7.500    
    108      1     54    180       7.500           7.500    
    109      1     55      1      -7.500          -7.500    
    110      1     55    180       7.500           7.500    
    111      1     56      1      -7.500          -7.500    
    112      1     56    180       7.500           7.500    
    113      1     57      1      -7.500          -7.500    
    114      1     57    180       7.500           7.500    
    115      1     58      1      -7.500          -7.500    
    116      1     58    180       7.500           7.500    
    117      1     59      1      -7.500          -7.500    
    118      1     59    180       7.500           7.500    
    119      1     60      1      -7.500          -7.500    
    120      1     60    180       7.500           7.500    
    121      1     61      1      -7.500          -7.500    
    122      1     61    180       7.500           7.500    
    123      1     62      1      -7.500          -7.500    
    124      1     62    180       7.500           7.500    
    125      1     63      1      -7.500          -7.500    
    126      1     63    180       7.500           7.500    
    127      1     64      1      -7.500          -7.500    
    128      1     64    180       7.500           7.500    
    129      1     65      1      -7.500          -7.500    
    130      1     65    180       7.500           7.500    
    131      1     66      1      -7.500          -7.500    
    132      1     66    180       7.500           7.500    
    133      1     67      1      -7.500          -7.500    
    134      1     67    180       7.500           7.500    
    135      1     68      1      -7.500          -7.500    
    136      1     68    180       7.500           7.500    
    137      1     69      1      -7.500          -7.500    
    138      1     69    180       7.500           7.500    
    139      1     70      1      -7.500          -7.500    
    140      1     70    180       7.500           7.500    
    141      1     71      1      -7.500          -7.500    
    142      1     71    180       7.500           7.500    
    143      1     72      1      -7.500          -7.500    
    144      1     72    180       7.500           7.500    
    145      1     73      1      -7.500          -7.500    
    146      1     73    180       7.500           7.500    
    147      1     74      1      -7.500          -7.500    
    148      1     74    180       7.500           7.500    
    149      1     75      1      -7.500          -7.500    
    150      1     75    180       7.500           7.500    
    151      1     76      1      -7.500          -7.500    
    152      1     76    180       7.500           7.500    
    153      1     77      1      -7.500          -7.500    
    154      1     77    180       7.500           7.500    
    155      1     78      1      -7.500          -7.500    
    156      1     78    180       7.500           7.500    
    157      1     79      1      -7.500          -7.500    
    158      1     79    180       7.500           7.500    
    159      1     80      1      -7.500          -7.500    
    160      1     80    180       7.500           7.500    
    161      1     81      1      -7.500          -7.500    
    162      1     81    180       7.500           7.500    
    163      1     82      1      -7.500          -7.500    
    164      1     82    180       7.500           7.500    
    165      1     83      1      -7.500          -7.500    
    166      1     83    180       7.500           7.500    
    167      1     84      1      -7.500          -7.500    
    168      1     84    180       7.500           7.500    
    169      1     85      1      -7.500          -7.500    
    170      1     85    180       7.500           7.500    
    171      1     86      1      -7.500          -7.500    
    172      1     86    180       7.500           7.500    
    173      1     87      1      -7.500          -7.500    
    174      1     87    180       7.500           7.500    
    175      1     88      1      -7.500          -7.500    
    176      1     88    180       7.500           7.500    
    177      1     89      1      -7.500          -7.500    
    178      1     89    180       7.500           7.500    
    179      1     90      1      -7.500          -7.500    
    180      1     90    180       7.500           7.500    
    181      1     91      1      -7.500          -7.500    
    182      1     91    180       7.500           7.500    
    183      1     92      1      -7.500          -7.500    
    184      1     92    180       7.500           7.500    
    185      1     93      1      -7.500          -7.500    
    186      1     93    180       7.500           7.500    
    187      1     94      1      -7.500          -7.500    
    188      1     94    180       7.500           7.500    
    189      1     95      1      -7.500          -7.500    
    190      1     95    180       7.500           7.500    
    191      1     96      1      -7.500          -7.500    
    192      1     96    180       7.500           7.500    
    193      1     97      1      -7.500          -7.500    
    194      1     97    180       7.500           7.500    
    195      1     98      1      -7.500          -7.500    
    196      1     98    180       7.500           7.500    
    197      1     99      1      -7.500          -7.500    
    198      1     99    180       7.500           7.500    
    199      1    100      1      -7.500          -7.500    
    200      1    100    180       7.500           7.500    
    201      1    101      1      -7.500          -7.500    
    202      1    101    180       7.500           7.500    
    203      1    102      1      -7.500          -7.500    
    204      1    102    180       7.500           7.500    
    205      1    103      1      -7.500          -7.500    
    206      1    103    180       7.500           7.500    
    207      1    104      1      -7.500          -7.500    
    208      1    104    180       7.500           7.500    
    209      1    105      1      -7.500          -7.500    
    210      1    105    180       7.500           7.500    
    211      1    106      1      -7.500          -7.500    
    212      1    106    180       7.500           7.500    
    213      1    107      1      -7.500          -7.500    
    214      1    107    180       7.500           7.500    
    215      1    108      1      -7.500          -7.500    
    216      1    108    180       7.500           7.500    
    217      1    109      1      -7.500          -7.500    
    218      1    109    180       7.500           7.500    
    219      1    110      1      -7.500          -7.500    
    220      1    110    180       7.500           7.500    
    221      1    111      1      -7.500          -7.500    
    222      1    111    180       7.500           7.500    
    223      1    112      1      -7.500          -7.500    
    224      1    112    180       7.500           7.500    
    225      1    113      1      -7.500          -7.500    
    226      1    113    180       7.500           7.500    
    227      1    114      1      -7.500          -7.500    
    228      1    114    180       7.500           7.500    
    229      1    115      1      -7.500          -7.500    
    230      1    115    180       7.500           7.500    
    231      1    116      1      -7.500          -7.500    
    232      1    116    180       7.500           7.500    
    233      1    117      1      -7.500          -7.500    
    234      1    117    180       7.500           7.500    
    235      1    118      1      -7.500          -7.500    
    236      1    118    180       7.500           7.500    
    237      1    119      1      -7.500          -7.500    
    238      1    119    180       7.500           7.500    
    239      1    120      1      -7.500          -7.500    
    240      1    120    180       7.500           7.500    
    241      1    121      1      -7.500          -7.500    
    242      1    121    180       7.500           7.500    
    243      1    122      1      -7.500          -7.500    
    244      1    122    180       7.500           7.500    
    245      1    123      1      -7.500          -7.500    
    246      1    123    180       7.500           7.500    
    247      1    124      1      -7.500          -7.500    
    248      1    124    180       7.500           7.500    
    249      1    125      1      -7.500          -7.500    
    250      1    125    180       7.500           7.500    
    251      1    126      1      -7.500          -7.500    
    252      1    126    180       7.500           7.500    
    253      1    127      1      -7.500          -7.500    
    254      1    127    180       7.500           7.500    
    255      1    128      1      -7.500          -7.500    
    256      1    128    180       7.500           7.500    
    257      1    129      1      -7.500          -7.500    
    258      1    129    180       7.500           7.500    
    259      1    130      1      -7.500          -7.500    
    260      1    130    180       7.500           7.500    
    261      1    131      1      -7.500          -7.500    
    262      1    131    180       7.500           7.500    
    263      1    132      1      -7.500          -7.500    
    264      1    132    180       7.500           7.500    
    265      1    133      1      -7.500          -7.500    
    266      1    133    180       7.500           7.500    
    267      1    134      1      -7.500          -7.500    
    268      1    134    180       7.500           7.500    
    269      1    135      1      -7.500          -7.500    
    270      1    135    180       7.500           7.500    
    271      1    136      1      -7.500          -7.500    
    272      1    136    180       7.500           7.500    
    273      1    137      1      -7.500          -7.500    
    274      1    137    180       7.500           7.500    
    275      1    138      1      -7.500          -7.500    
    276      1    138    180       7.500           7.500    
    277      1    139      1      -7.500          -7.500    
    278      1    139    180       7.500           7.500    
    279      1    140      1      -7.500          -7.500    
    280      1    140    180       7.500           7.500    
    281      1    141      1      -7.500          -7.500    
    282      1    141    180       7.500           7.500    
    283      1    142      1      -7.500          -7.500    
    284      1    142    180       7.500           7.500    
    285      1    143      1      -7.500          -7.500    
    286      1    143    180       7.500           7.500    
    287      1    144      1      -7.500          -7.500    
    288      1    144    180       7.500           7.500    
    289      1    145      1      -7.500          -7.500    
    290      1    145    180       7.500           7.500    
    291      1    146      1      -7.500          -7.500    
    292      1    146    180       7.500           7.500    
    293      1    147      1      -7.500          -7.500    
    294      1    147    180       7.500           7.500    
    295      1    148      1      -7.500          -7.500    
    296      1    148    180       7.500           7.500    
    297      1    149      1      -7.500          -7.500    
    298      1    149    180       7.500           7.500    
    299      1    150      1      -7.500          -7.500    
    300      1    150    180       7.500           7.500    
    301      1    151      1      -7.500          -7.500    
    302      1    151    180       7.500           7.500    
    303      1    152      1      -7.500          -7.500    
    304      1    152    180       7.500           7.500    
    305      1    153      1      -7.500          -7.500    
    306      1    153    180       7.500           7.500    
    307      1    154      1      -7.500          -7.500    
    308      1    154    180       7.500           7.500    
    309      1    155      1      -7.500          -7.500    
    310      1    155    180       7.500           7.500    
    311      1    156      1      -7.500          -7.500    
    312      1    156    180       7.500           7.500    
    313      1    157      1      -7.500          -7.500    
    314      1    157    180       7.500           7.500    
    315      1    158      1      -7.500          -7.500    
    316      1    158    180       7.500           7.500    
    317      1    159      1      -7.500          -7.500    
    318      1    159    180       7.500           7.500    
    319      1    160      1      -7.500          -7.500    
    320      1    160    180       7.500           7.500    
    321      1    161      1      -7.500          -7.500    
    322      1    161    180       7.500           7.500    
    323      1    162      1      -7.500          -7.500    
    324      1    162    180       7.500           7.500    
    325      1    163      1      -7.500          -7.500    
    326      1    163    180       7.500           7.500    
    327      1    164      1      -7.500          -7.500    
    328      1    164    180       7.500           7.500    
    329      1    165      1      -7.500          -7.500    
    330      1    165    180       7.500           7.500    
    331      1    166      1      -7.500          -7.500    
    332      1    166    180       7.500           7.500    
    333      1    167      1      -7.500          -7.500    
    334      1    167    180       7.500           7.500    
    335      1    168      1      -7.500          -7.500    
    336      1    168    180       7.500           7.500    
    337      1    169      1      -7.500          -7.500    
    338      1    169    180       7.500           7.500    
    339      1    170      1      -7.500          -7.500    
    340      1    170    180       7.500           7.500    
    341      1    171      1      -7.500          -7.500    
    342      1    171    180       7.500           7.500    
    343      1    172      1      -7.500          -7.500    
    344      1    172    180       7.500           7.500    
    345      1    173      1      -7.500          -7.500    
    346      1    173    180       7.500           7.500    
    347      1    174      1      -7.500          -7.500    
    348      1    174    180       7.500           7.500    
    349      1    175      1      -7.500          -7.500    
    350      1    175    180       7.500           7.500    
    351      1    176      1      -7.500          -7.500    
    352      1    176    180       7.500           7.500    
    353      1    177      1      -7.500          -7.500    
    354      1    177    180       7.500           7.500    
    355      1    178      1      -7.500          -7.500    
    356      1    178    180       7.500           7.500    
    357      1    179      1      -7.500          -7.500    
    358      1    179    180       7.500           7.500    
    359      1    180      1      -7.500          -7.500    
    360      1    180    180       7.500           7.500    


    360 TIME-VARIANT SPECIFIED-HEAD CELLS
 
 SOLVING FOR HEAD 

 OUTPUT CONTROL FOR STRESS PERIOD   16   TIME STEP    1
    SAVE HEAD FOR ALL LAYERS

 SAVING SATURATED THICKNESS AND FLOW TERMS ON UNIT   54 FOR MT3DMS
 BY THE LINK-MT3DMS PACKAGE V7 AT TIME STEP    1, STRESS PERIOD   16


 HEAD WILL BE SAVED ON UNIT   51 AT END OF TIME STEP    1, STRESS PERIOD   16
1
  VOLUMETRIC BUDGET FOR ENTIRE MODEL AT END OF TIME STEP    1, STRESS PERIOD  16
  ------------------------------------------------------------------------------

     CUMULATIVE VOLUMES      L**3       RATES FOR THIS TIME STEP      L**3/T
     ------------------                 ------------------------

           IN:                                      IN:
           ---                                      ---
             STORAGE =     1571651.2500               STORAGE =        1393.4551
       CONSTANT HEAD =     1773130.3750         CONSTANT HEAD =        2377.1421
               WELLS =      447916.5000                 WELLS =           0.0000

            TOTAL IN =     3792698.2500              TOTAL IN =        3770.5972

          OUT:                                     OUT:
          ----                                     ----
             STORAGE =     1619460.1250               STORAGE =         410.9105
       CONSTANT HEAD =     1842350.1250         CONSTANT HEAD =        2553.9363
               WELLS =      330887.6250                 WELLS =         805.7504

           TOTAL OUT =     3792698.0000             TOTAL OUT =        3770.5972

            IN - OUT =           0.2500              IN - OUT =           0.0000

 PERCENT DISCREPANCY =           0.00     PERCENT DISCREPANCY =           0.00






         TIME SUMMARY AT END OF TIME STEP    1 IN STRESS PERIOD   16
                    SECONDS     MINUTES      HOURS       DAYS        YEARS
                    -----------------------------------------------------------
   TIME STEP LENGTH 2.59200E+06  43200.      720.00      30.000     8.21355E-02
 STRESS PERIOD TIME 2.59200E+06  43200.      720.00      30.000     8.21355E-02
         TOTAL TIME 4.14720E+07 6.91200E+05  11520.      480.00      1.3142    
1
1
                            STRESS PERIOD NO.   17, LENGTH =   30.00000    
                            -----------------------------------------------

                              NUMBER OF TIME STEPS =     1

                               MULTIPLIER FOR DELT =     1.000

                            INITIAL TIME STEP SIZE =   30.00000    

 WELL NO.  LAYER   ROW   COL   STRESS RATE         
 --------------------------------------------------
      1      1     91     91      -298.3    

      1 WELL 

 CHD NO.   LAYER   ROW   COL    START HEAD        END HEAD         
 ------------------------------------------------------------------
      1      1      1      1      -7.500          -7.500    
      2      1      1    180       7.500           7.500    
      3      1      2      1      -7.500          -7.500    
      4      1      2    180       7.500           7.500    
      5      1      3      1      -7.500          -7.500    
      6      1      3    180       7.500           7.500    
      7      1      4      1      -7.500          -7.500    
      8      1      4    180       7.500           7.500    
      9      1      5      1      -7.500          -7.500    
     10      1      5    180       7.500           7.500    
     11      1      6      1      -7.500          -7.500    
     12      1      6    180       7.500           7.500    
     13      1      7      1      -7.500          -7.500    
     14      1      7    180       7.500           7.500    
     15      1      8      1      -7.500          -7.500    
     16      1      8    180       7.500           7.500    
     17      1      9      1      -7.500          -7.500    
     18      1      9    180       7.500           7.500    
     19      1     10      1      -7.500          -7.500    
     20      1     10    180       7.500           7.500    
     21      1     11      1      -7.500          -7.500    
     22      1     11    180       7.500           7.500    
     23      1     12      1      -7.500          -7.500    
     24      1     12    180       7.500           7.500    
     25      1     13      1      -7.500          -7.500    
     26      1     13    180       7.500           7.500    
     27      1     14      1      -7.500          -7.500    
     28      1     14    180       7.500           7.500    
     29      1     15      1      -7.500          -7.500    
     30      1     15    180       7.500           7.500    
     31      1     16      1      -7.500          -7.500    
     32      1     16    180       7.500           7.500    
     33      1     17      1      -7.500          -7.500    
     34      1     17    180       7.500           7.500    
     35      1     18      1      -7.500          -7.500    
     36      1     18    180       7.500           7.500    
     37      1     19      1      -7.500          -7.500    
     38      1     19    180       7.500           7.500    
     39      1     20      1      -7.500          -7.500    
     40      1     20    180       7.500           7.500    
     41      1     21      1      -7.500          -7.500    
     42      1     21    180       7.500           7.500    
     43      1     22      1      -7.500          -7.500    
     44      1     22    180       7.500           7.500    
     45      1     23      1      -7.500          -7.500    
     46      1     23    180       7.500           7.500    
     47      1     24      1      -7.500          -7.500    
     48      1     24    180       7.500           7.500    
     49      1     25      1      -7.500          -7.500    
     50      1     25    180       7.500           7.500    
     51      1     26      1      -7.500          -7.500    
     52      1     26    180       7.500           7.500    
     53      1     27      1      -7.500          -7.500    
     54      1     27    180       7.500           7.500    
     55      1     28      1      -7.500          -7.500    
     56      1     28    180       7.500           7.500    
     57      1     29      1      -7.500          -7.500    
     58      1     29    180       7.500           7.500    
     59      1     30      1      -7.500          -7.500    
     60      1     30    180       7.500           7.500    
     61      1     31      1      -7.500          -7.500    
     62      1     31    180       7.500           7.500    
     63      1     32      1      -7.500          -7.500    
     64      1     32    180       7.500           7.500    
     65      1     33      1      -7.500          -7.500    
     66      1     33    180       7.500           7.500    
     67      1     34      1      -7.500          -7.500    
     68      1     34    180       7.500           7.500    
     69      1     35      1      -7.500          -7.500    
     70      1     35    180       7.500           7.500    
     71      1     36      1      -7.500          -7.500    
     72      1     36    180       7.500           7.500    
     73      1     37      1      -7.500          -7.500    
     74      1     37    180       7.500           7.500    
     75      1     38      1      -7.500          -7.500    
     76      1     38    180       7.500           7.500    
     77      1     39      1      -7.500          -7.500    
     78      1     39    180       7.500           7.500    
     79      1     40      1      -7.500          -7.500    
     80      1     40    180       7.500           7.500    
     81      1     41      1      -7.500          -7.500    
     82      1     41    180       7.500           7.500    
     83      1     42      1      -7.500          -7.500    
     84      1     42    180       7.500           7.500    
     85      1     43      1      -7.500          -7.500    
     86      1     43    180       7.500           7.500    
     87      1     44      1      -7.500          -7.500    
     88      1     44    180       7.500           7.500    
     89      1     45      1      -7.500          -7.500    
     90      1     45    180       7.500           7.500    
     91      1     46      1      -7.500          -7.500    
     92      1     46    180       7.500           7.500    
     93      1     47      1      -7.500          -7.500    
     94      1     47    180       7.500           7.500    
     95      1     48      1      -7.500          -7.500    
     96      1     48    180       7.500           7.500    
     97      1     49      1      -7.500          -7.500    
     98      1     49    180       7.500           7.500    
     99      1     50      1      -7.500          -7.500    
    100      1     50    180       7.500           7.500    
    101      1     51      1      -7.500          -7.500    
    102      1     51    180       7.500           7.500    
    103      1     52      1      -7.500          -7.500    
    104      1     52    180       7.500           7.500    
    105      1     53      1      -7.500          -7.500    
    106      1     53    180       7.500           7.500    
    107      1     54      1      -7.500          -7.500    
    108      1     54    180       7.500           7.500    
    109      1     55      1      -7.500          -7.500    
    110      1     55    180       7.500           7.500    
    111      1     56      1      -7.500          -7.500    
    112      1     56    180       7.500           7.500    
    113      1     57      1      -7.500          -7.500    
    114      1     57    180       7.500           7.500    
    115      1     58      1      -7.500          -7.500    
    116      1     58    180       7.500           7.500    
    117      1     59      1      -7.500          -7.500    
    118      1     59    180       7.500           7.500    
    119      1     60      1      -7.500          -7.500    
    120      1     60    180       7.500           7.500    
    121      1     61      1      -7.500          -7.500    
    122      1     61    180       7.500           7.500    
    123      1     62      1      -7.500          -7.500    
    124      1     62    180       7.500           7.500    
    125      1     63      1      -7.500          -7.500    
    126      1     63    180       7.500           7.500    
    127      1     64      1      -7.500          -7.500    
    128      1     64    180       7.500           7.500    
    129      1     65      1      -7.500          -7.500    
    130      1     65    180       7.500           7.500    
    131      1     66      1      -7.500          -7.500    
    132      1     66    180       7.500           7.500    
    133      1     67      1      -7.500          -7.500    
    134      1     67    180       7.500           7.500    
    135      1     68      1      -7.500          -7.500    
    136      1     68    180       7.500           7.500    
    137      1     69      1      -7.500          -7.500    
    138      1     69    180       7.500           7.500    
    139      1     70      1      -7.500          -7.500    
    140      1     70    180       7.500           7.500    
    141      1     71      1      -7.500          -7.500    
    142      1     71    180       7.500           7.500    
    143      1     72      1      -7.500          -7.500    
    144      1     72    180       7.500           7.500    
    145      1     73      1      -7.500          -7.500    
    146      1     73    180       7.500           7.500    
    147      1     74      1      -7.500          -7.500    
    148      1     74    180       7.500           7.500    
    149      1     75      1      -7.500          -7.500    
    150      1     75    180       7.500           7.500    
    151      1     76      1      -7.500          -7.500    
    152      1     76    180       7.500           7.500    
    153      1     77      1      -7.500          -7.500    
    154      1     77    180       7.500           7.500    
    155      1     78      1      -7.500          -7.500    
    156      1     78    180       7.500           7.500    
    157      1     79      1      -7.500          -7.500    
    158      1     79    180       7.500           7.500    
    159      1     80      1      -7.500          -7.500    
    160      1     80    180       7.500           7.500    
    161      1     81      1      -7.500          -7.500    
    162      1     81    180       7.500           7.500    
    163      1     82      1      -7.500          -7.500    
    164      1     82    180       7.500           7.500    
    165      1     83      1      -7.500          -7.500    
    166      1     83    180       7.500           7.500    
    167      1     84      1      -7.500          -7.500    
    168      1     84    180       7.500           7.500    
    169      1     85      1      -7.500          -7.500    
    170      1     85    180       7.500           7.500    
    171      1     86      1      -7.500          -7.500    
    172      1     86    180       7.500           7.500    
    173      1     87      1      -7.500          -7.500    
    174      1     87    180       7.500           7.500    
    175      1     88      1      -7.500          -7.500    
    176      1     88    180       7.500           7.500    
    177      1     89      1      -7.500          -7.500    
    178      1     89    180       7.500           7.500    
    179      1     90      1      -7.500          -7.500    
    180      1     90    180       7.500           7.500    
    181      1     91      1      -7.500          -7.500    
    182      1     91    180       7.500           7.500    
    183      1     92      1      -7.500          -7.500    
    184      1     92    180       7.500           7.500    
    185      1     93      1      -7.500          -7.500    
    186      1     93    180       7.500           7.500    
    187      1     94      1      -7.500          -7.500    
    188      1     94    180       7.500           7.500    
    189      1     95      1      -7.500          -7.500    
    190      1     95    180       7.500           7.500    
    191      1     96      1      -7.500          -7.500    
    192      1     96    180       7.500           7.500    
    193      1     97      1      -7.500          -7.500    
    194      1     97    180       7.500           7.500    
    195      1     98      1      -7.500          -7.500    
    196      1     98    180       7.500           7.500    
    197      1     99      1      -7.500          -7.500    
    198      1     99    180       7.500           7.500    
    199      1    100      1      -7.500          -7.500    
    200      1    100    180       7.500           7.500    
    201      1    101      1      -7.500          -7.500    
    202      1    101    180       7.500           7.500    
    203      1    102      1      -7.500          -7.500    
    204      1    102    180       7.500           7.500    
    205      1    103      1      -7.500          -7.500    
    206      1    103    180       7.500           7.500    
    207      1    104      1      -7.500          -7.500    
    208      1    104    180       7.500           7.500    
    209      1    105      1      -7.500          -7.500    
    210      1    105    180       7.500           7.500    
    211      1    106      1      -7.500          -7.500    
    212      1    106    180       7.500           7.500    
    213      1    107      1      -7.500          -7.500    
    214      1    107    180       7.500           7.500    
    215      1    108      1      -7.500          -7.500    
    216      1    108    180       7.500           7.500    
    217      1    109      1      -7.500          -7.500    
    218      1    109    180       7.500           7.500    
    219      1    110      1      -7.500          -7.500    
    220      1    110    180       7.500           7.500    
    221      1    111      1      -7.500          -7.500    
    222      1    111    180       7.500           7.500    
    223      1    112      1      -7.500          -7.500    
    224      1    112    180       7.500           7.500    
    225      1    113      1      -7.500          -7.500    
    226      1    113    180       7.500           7.500    
    227      1    114      1      -7.500          -7.500    
    228      1    114    180       7.500           7.500    
    229      1    115      1      -7.500          -7.500    
    230      1    115    180       7.500           7.500    
    231      1    116      1      -7.500          -7.500    
    232      1    116    180       7.500           7.500    
    233      1    117      1      -7.500          -7.500    
    234      1    117    180       7.500           7.500    
    235      1    118      1      -7.500          -7.500    
    236      1    118    180       7.500           7.500    
    237      1    119      1      -7.500          -7.500    
    238      1    119    180       7.500           7.500    
    239      1    120      1      -7.500          -7.500    
    240      1    120    180       7.500           7.500    
    241      1    121      1      -7.500          -7.500    
    242      1    121    180       7.500           7.500    
    243      1    122      1      -7.500          -7.500    
    244      1    122    180       7.500           7.500    
    245      1    123      1      -7.500          -7.500    
    246      1    123    180       7.500           7.500    
    247      1    124      1      -7.500          -7.500    
    248      1    124    180       7.500           7.500    
    249      1    125      1      -7.500          -7.500    
    250      1    125    180       7.500           7.500    
    251      1    126      1      -7.500          -7.500    
    252      1    126    180       7.500           7.500    
    253      1    127      1      -7.500          -7.500    
    254      1    127    180       7.500           7.500    
    255      1    128      1      -7.500          -7.500    
    256      1    128    180       7.500           7.500    
    257      1    129      1      -7.500          -7.500    
    258      1    129    180       7.500           7.500    
    259      1    130      1      -7.500          -7.500    
    260      1    130    180       7.500           7.500    
    261      1    131      1      -7.500          -7.500    
    262      1    131    180       7.500           7.500    
    263      1    132      1      -7.500          -7.500    
    264      1    132    180       7.500           7.500    
    265      1    133      1      -7.500          -7.500    
    266      1    133    180       7.500           7.500    
    267      1    134      1      -7.500          -7.500    
    268      1    134    180       7.500           7.500    
    269      1    135      1      -7.500          -7.500    
    270      1    135    180       7.500           7.500    
    271      1    136      1      -7.500          -7.500    
    272      1    136    180       7.500           7.500    
    273      1    137      1      -7.500          -7.500    
    274      1    137    180       7.500           7.500    
    275      1    138      1      -7.500          -7.500    
    276      1    138    180       7.500           7.500    
    277      1    139      1      -7.500          -7.500    
    278      1    139    180       7.500           7.500    
    279      1    140      1      -7.500          -7.500    
    280      1    140    180       7.500           7.500    
    281      1    141      1      -7.500          -7.500    
    282      1    141    180       7.500           7.500    
    283      1    142      1      -7.500          -7.500    
    284      1    142    180       7.500           7.500    
    285      1    143      1      -7.500          -7.500    
    286      1    143    180       7.500           7.500    
    287      1    144      1      -7.500          -7.500    
    288      1    144    180       7.500           7.500    
    289      1    145      1      -7.500          -7.500    
    290      1    145    180       7.500           7.500    
    291      1    146      1      -7.500          -7.500    
    292      1    146    180       7.500           7.500    
    293      1    147      1      -7.500          -7.500    
    294      1    147    180       7.500           7.500    
    295      1    148      1      -7.500          -7.500    
    296      1    148    180       7.500           7.500    
    297      1    149      1      -7.500          -7.500    
    298      1    149    180       7.500           7.500    
    299      1    150      1      -7.500          -7.500    
    300      1    150    180       7.500           7.500    
    301      1    151      1      -7.500          -7.500    
    302      1    151    180       7.500           7.500    
    303      1    152      1      -7.500          -7.500    
    304      1    152    180       7.500           7.500    
    305      1    153      1      -7.500          -7.500    
    306      1    153    180       7.500           7.500    
    307      1    154      1      -7.500          -7.500    
    308      1    154    180       7.500           7.500    
    309      1    155      1      -7.500          -7.500    
    310      1    155    180       7.500           7.500    
    311      1    156      1      -7.500          -7.500    
    312      1    156    180       7.500           7.500    
    313      1    157      1      -7.500          -7.500    
    314      1    157    180       7.500           7.500    
    315      1    158      1      -7.500          -7.500    
    316      1    158    180       7.500           7.500    
    317      1    159      1      -7.500          -7.500    
    318      1    159    180       7.500           7.500    
    319      1    160      1      -7.500          -7.500    
    320      1    160    180       7.500           7.500    
    321      1    161      1      -7.500          -7.500    
    322      1    161    180       7.500           7.500    
    323      1    162      1      -7.500          -7.500    
    324      1    162    180       7.500           7.500    
    325      1    163      1      -7.500          -7.500    
    326      1    163    180       7.500           7.500    
    327      1    164      1      -7.500          -7.500    
    328      1    164    180       7.500           7.500    
    329      1    165      1      -7.500          -7.500    
    330      1    165    180       7.500           7.500    
    331      1    166      1      -7.500          -7.500    
    332      1    166    180       7.500           7.500    
    333      1    167      1      -7.500          -7.500    
    334      1    167    180       7.500           7.500    
    335      1    168      1      -7.500          -7.500    
    336      1    168    180       7.500           7.500    
    337      1    169      1      -7.500          -7.500    
    338      1    169    180       7.500           7.500    
    339      1    170      1      -7.500          -7.500    
    340      1    170    180       7.500           7.500    
    341      1    171      1      -7.500          -7.500    
    342      1    171    180       7.500           7.500    
    343      1    172      1      -7.500          -7.500    
    344      1    172    180       7.500           7.500    
    345      1    173      1      -7.500          -7.500    
    346      1    173    180       7.500           7.500    
    347      1    174      1      -7.500          -7.500    
    348      1    174    180       7.500           7.500    
    349      1    175      1      -7.500          -7.500    
    350      1    175    180       7.500           7.500    
    351      1    176      1      -7.500          -7.500    
    352      1    176    180       7.500           7.500    
    353      1    177      1      -7.500          -7.500    
    354      1    177    180       7.500           7.500    
    355      1    178      1      -7.500          -7.500    
    356      1    178    180       7.500           7.500    
    357      1    179      1      -7.500          -7.500    
    358      1    179    180       7.500           7.500    
    359      1    180      1      -7.500          -7.500    
    360      1    180    180       7.500           7.500    


    360 TIME-VARIANT SPECIFIED-HEAD CELLS
 
 SOLVING FOR HEAD 

 OUTPUT CONTROL FOR STRESS PERIOD   17   TIME STEP    1
    SAVE HEAD FOR ALL LAYERS

 SAVING SATURATED THICKNESS AND FLOW TERMS ON UNIT   54 FOR MT3DMS
 BY THE LINK-MT3DMS PACKAGE V7 AT TIME STEP    1, STRESS PERIOD   17


 HEAD WILL BE SAVED ON UNIT   51 AT END OF TIME STEP    1, STRESS PERIOD   17
1
  VOLUMETRIC BUDGET FOR ENTIRE MODEL AT END OF TIME STEP    1, STRESS PERIOD  17
  ------------------------------------------------------------------------------

     CUMULATIVE VOLUMES      L**3       RATES FOR THIS TIME STEP      L**3/T
     ------------------                 ------------------------

           IN:                                      IN:
           ---                                      ---
             STORAGE =     1600114.2500               STORAGE =         948.7684
       CONSTANT HEAD =     1843455.1250         CONSTANT HEAD =        2344.1572
               WELLS =      447916.5000                 WELLS =           0.0000

            TOTAL IN =     3891485.7500              TOTAL IN =        3292.9255

          OUT:                                     OUT:
          ----                                     ----
             STORAGE =     1634351.1250               STORAGE =         496.3683
       CONSTANT HEAD =     1917298.1250         CONSTANT HEAD =        2498.2661
               WELLS =      339836.3750                 WELLS =         298.2915

           TOTAL OUT =     3891485.5000             TOTAL OUT =        3292.9260

            IN - OUT =           0.2500              IN - OUT =      -4.8828E-04

 PERCENT DISCREPANCY =           0.00     PERCENT DISCREPANCY =          -0.00






         TIME SUMMARY AT END OF TIME STEP    1 IN STRESS PERIOD   17
                    SECONDS     MINUTES      HOURS       DAYS        YEARS
                    -----------------------------------------------------------
   TIME STEP LENGTH 2.59200E+06  43200.      720.00      30.000     8.21355E-02
 STRESS PERIOD TIME 2.59200E+06  43200.      720.00      30.000     8.21355E-02
         TOTAL TIME 4.40640E+07 7.34400E+05  12240.      510.00      1.3963    
1
1
                            STRESS PERIOD NO.   18, LENGTH =   30.00000    
                            -----------------------------------------------

                              NUMBER OF TIME STEPS =     1

                               MULTIPLIER FOR DELT =     1.000

                            INITIAL TIME STEP SIZE =   30.00000    

 WELL NO.  LAYER   ROW   COL   STRESS RATE         
 --------------------------------------------------
      1      1     91     91       2145.    

      1 WELL 

 CHD NO.   LAYER   ROW   COL    START HEAD        END HEAD         
 ------------------------------------------------------------------
      1      1      1      1      -7.500          -7.500    
      2      1      1    180       7.500           7.500    
      3      1      2      1      -7.500          -7.500    
      4      1      2    180       7.500           7.500    
      5      1      3      1      -7.500          -7.500    
      6      1      3    180       7.500           7.500    
      7      1      4      1      -7.500          -7.500    
      8      1      4    180       7.500           7.500    
      9      1      5      1      -7.500          -7.500    
     10      1      5    180       7.500           7.500    
     11      1      6      1      -7.500          -7.500    
     12      1      6    180       7.500           7.500    
     13      1      7      1      -7.500          -7.500    
     14      1      7    180       7.500           7.500    
     15      1      8      1      -7.500          -7.500    
     16      1      8    180       7.500           7.500    
     17      1      9      1      -7.500          -7.500    
     18      1      9    180       7.500           7.500    
     19      1     10      1      -7.500          -7.500    
     20      1     10    180       7.500           7.500    
     21      1     11      1      -7.500          -7.500    
     22      1     11    180       7.500           7.500    
     23      1     12      1      -7.500          -7.500    
     24      1     12    180       7.500           7.500    
     25      1     13      1      -7.500          -7.500    
     26      1     13    180       7.500           7.500    
     27      1     14      1      -7.500          -7.500    
     28      1     14    180       7.500           7.500    
     29      1     15      1      -7.500          -7.500    
     30      1     15    180       7.500           7.500    
     31      1     16      1      -7.500          -7.500    
     32      1     16    180       7.500           7.500    
     33      1     17      1      -7.500          -7.500    
     34      1     17    180       7.500           7.500    
     35      1     18      1      -7.500          -7.500    
     36      1     18    180       7.500           7.500    
     37      1     19      1      -7.500          -7.500    
     38      1     19    180       7.500           7.500    
     39      1     20      1      -7.500          -7.500    
     40      1     20    180       7.500           7.500    
     41      1     21      1      -7.500          -7.500    
     42      1     21    180       7.500           7.500    
     43      1     22      1      -7.500          -7.500    
     44      1     22    180       7.500           7.500    
     45      1     23      1      -7.500          -7.500    
     46      1     23    180       7.500           7.500    
     47      1     24      1      -7.500          -7.500    
     48      1     24    180       7.500           7.500    
     49      1     25      1      -7.500          -7.500    
     50      1     25    180       7.500           7.500    
     51      1     26      1      -7.500          -7.500    
     52      1     26    180       7.500           7.500    
     53      1     27      1      -7.500          -7.500    
     54      1     27    180       7.500           7.500    
     55      1     28      1      -7.500          -7.500    
     56      1     28    180       7.500           7.500    
     57      1     29      1      -7.500          -7.500    
     58      1     29    180       7.500           7.500    
     59      1     30      1      -7.500          -7.500    
     60      1     30    180       7.500           7.500    
     61      1     31      1      -7.500          -7.500    
     62      1     31    180       7.500           7.500    
     63      1     32      1      -7.500          -7.500    
     64      1     32    180       7.500           7.500    
     65      1     33      1      -7.500          -7.500    
     66      1     33    180       7.500           7.500    
     67      1     34      1      -7.500          -7.500    
     68      1     34    180       7.500           7.500    
     69      1     35      1      -7.500          -7.500    
     70      1     35    180       7.500           7.500    
     71      1     36      1      -7.500          -7.500    
     72      1     36    180       7.500           7.500    
     73      1     37      1      -7.500          -7.500    
     74      1     37    180       7.500           7.500    
     75      1     38      1      -7.500          -7.500    
     76      1     38    180       7.500           7.500    
     77      1     39      1      -7.500          -7.500    
     78      1     39    180       7.500           7.500    
     79      1     40      1      -7.500          -7.500    
     80      1     40    180       7.500           7.500    
     81      1     41      1      -7.500          -7.500    
     82      1     41    180       7.500           7.500    
     83      1     42      1      -7.500          -7.500    
     84      1     42    180       7.500           7.500    
     85      1     43      1      -7.500          -7.500    
     86      1     43    180       7.500           7.500    
     87      1     44      1      -7.500          -7.500    
     88      1     44    180       7.500           7.500    
     89      1     45      1      -7.500          -7.500    
     90      1     45    180       7.500           7.500    
     91      1     46      1      -7.500          -7.500    
     92      1     46    180       7.500           7.500    
     93      1     47      1      -7.500          -7.500    
     94      1     47    180       7.500           7.500    
     95      1     48      1      -7.500          -7.500    
     96      1     48    180       7.500           7.500    
     97      1     49      1      -7.500          -7.500    
     98      1     49    180       7.500           7.500    
     99      1     50      1      -7.500          -7.500    
    100      1     50    180       7.500           7.500    
    101      1     51      1      -7.500          -7.500    
    102      1     51    180       7.500           7.500    
    103      1     52      1      -7.500          -7.500    
    104      1     52    180       7.500           7.500    
    105      1     53      1      -7.500          -7.500    
    106      1     53    180       7.500           7.500    
    107      1     54      1      -7.500          -7.500    
    108      1     54    180       7.500           7.500    
    109      1     55      1      -7.500          -7.500    
    110      1     55    180       7.500           7.500    
    111      1     56      1      -7.500          -7.500    
    112      1     56    180       7.500           7.500    
    113      1     57      1      -7.500          -7.500    
    114      1     57    180       7.500           7.500    
    115      1     58      1      -7.500          -7.500    
    116      1     58    180       7.500           7.500    
    117      1     59      1      -7.500          -7.500    
    118      1     59    180       7.500           7.500    
    119      1     60      1      -7.500          -7.500    
    120      1     60    180       7.500           7.500    
    121      1     61      1      -7.500          -7.500    
    122      1     61    180       7.500           7.500    
    123      1     62      1      -7.500          -7.500    
    124      1     62    180       7.500           7.500    
    125      1     63      1      -7.500          -7.500    
    126      1     63    180       7.500           7.500    
    127      1     64      1      -7.500          -7.500    
    128      1     64    180       7.500           7.500    
    129      1     65      1      -7.500          -7.500    
    130      1     65    180       7.500           7.500    
    131      1     66      1      -7.500          -7.500    
    132      1     66    180       7.500           7.500    
    133      1     67      1      -7.500          -7.500    
    134      1     67    180       7.500           7.500    
    135      1     68      1      -7.500          -7.500    
    136      1     68    180       7.500           7.500    
    137      1     69      1      -7.500          -7.500    
    138      1     69    180       7.500           7.500    
    139      1     70      1      -7.500          -7.500    
    140      1     70    180       7.500           7.500    
    141      1     71      1      -7.500          -7.500    
    142      1     71    180       7.500           7.500    
    143      1     72      1      -7.500          -7.500    
    144      1     72    180       7.500           7.500    
    145      1     73      1      -7.500          -7.500    
    146      1     73    180       7.500           7.500    
    147      1     74      1      -7.500          -7.500    
    148      1     74    180       7.500           7.500    
    149      1     75      1      -7.500          -7.500    
    150      1     75    180       7.500           7.500    
    151      1     76      1      -7.500          -7.500    
    152      1     76    180       7.500           7.500    
    153      1     77      1      -7.500          -7.500    
    154      1     77    180       7.500           7.500    
    155      1     78      1      -7.500          -7.500    
    156      1     78    180       7.500           7.500    
    157      1     79      1      -7.500          -7.500    
    158      1     79    180       7.500           7.500    
    159      1     80      1      -7.500          -7.500    
    160      1     80    180       7.500           7.500    
    161      1     81      1      -7.500          -7.500    
    162      1     81    180       7.500           7.500    
    163      1     82      1      -7.500          -7.500    
    164      1     82    180       7.500           7.500    
    165      1     83      1      -7.500          -7.500    
    166      1     83    180       7.500           7.500    
    167      1     84      1      -7.500          -7.500    
    168      1     84    180       7.500           7.500    
    169      1     85      1      -7.500          -7.500    
    170      1     85    180       7.500           7.500    
    171      1     86      1      -7.500          -7.500    
    172      1     86    180       7.500           7.500    
    173      1     87      1      -7.500          -7.500    
    174      1     87    180       7.500           7.500    
    175      1     88      1      -7.500          -7.500    
    176      1     88    180       7.500           7.500    
    177      1     89      1      -7.500          -7.500    
    178      1     89    180       7.500           7.500    
    179      1     90      1      -7.500          -7.500    
    180      1     90    180       7.500           7.500    
    181      1     91      1      -7.500          -7.500    
    182      1     91    180       7.500           7.500    
    183      1     92      1      -7.500          -7.500    
    184      1     92    180       7.500           7.500    
    185      1     93      1      -7.500          -7.500    
    186      1     93    180       7.500           7.500    
    187      1     94      1      -7.500          -7.500    
    188      1     94    180       7.500           7.500    
    189      1     95      1      -7.500          -7.500    
    190      1     95    180       7.500           7.500    
    191      1     96      1      -7.500          -7.500    
    192      1     96    180       7.500           7.500    
    193      1     97      1      -7.500          -7.500    
    194      1     97    180       7.500           7.500    
    195      1     98      1      -7.500          -7.500    
    196      1     98    180       7.500           7.500    
    197      1     99      1      -7.500          -7.500    
    198      1     99    180       7.500           7.500    
    199      1    100      1      -7.500          -7.500    
    200      1    100    180       7.500           7.500    
    201      1    101      1      -7.500          -7.500    
    202      1    101    180       7.500           7.500    
    203      1    102      1      -7.500          -7.500    
    204      1    102    180       7.500           7.500    
    205      1    103      1      -7.500          -7.500    
    206      1    103    180       7.500           7.500    
    207      1    104      1      -7.500          -7.500    
    208      1    104    180       7.500           7.500    
    209      1    105      1      -7.500          -7.500    
    210      1    105    180       7.500           7.500    
    211      1    106      1      -7.500          -7.500    
    212      1    106    180       7.500           7.500    
    213      1    107      1      -7.500          -7.500    
    214      1    107    180       7.500           7.500    
    215      1    108      1      -7.500          -7.500    
    216      1    108    180       7.500           7.500    
    217      1    109      1      -7.500          -7.500    
    218      1    109    180       7.500           7.500    
    219      1    110      1      -7.500          -7.500    
    220      1    110    180       7.500           7.500    
    221      1    111      1      -7.500          -7.500    
    222      1    111    180       7.500           7.500    
    223      1    112      1      -7.500          -7.500    
    224      1    112    180       7.500           7.500    
    225      1    113      1      -7.500          -7.500    
    226      1    113    180       7.500           7.500    
    227      1    114      1      -7.500          -7.500    
    228      1    114    180       7.500           7.500    
    229      1    115      1      -7.500          -7.500    
    230      1    115    180       7.500           7.500    
    231      1    116      1      -7.500          -7.500    
    232      1    116    180       7.500           7.500    
    233      1    117      1      -7.500          -7.500    
    234      1    117    180       7.500           7.500    
    235      1    118      1      -7.500          -7.500    
    236      1    118    180       7.500           7.500    
    237      1    119      1      -7.500          -7.500    
    238      1    119    180       7.500           7.500    
    239      1    120      1      -7.500          -7.500    
    240      1    120    180       7.500           7.500    
    241      1    121      1      -7.500          -7.500    
    242      1    121    180       7.500           7.500    
    243      1    122      1      -7.500          -7.500    
    244      1    122    180       7.500           7.500    
    245      1    123      1      -7.500          -7.500    
    246      1    123    180       7.500           7.500    
    247      1    124      1      -7.500          -7.500    
    248      1    124    180       7.500           7.500    
    249      1    125      1      -7.500          -7.500    
    250      1    125    180       7.500           7.500    
    251      1    126      1      -7.500          -7.500    
    252      1    126    180       7.500           7.500    
    253      1    127      1      -7.500          -7.500    
    254      1    127    180       7.500           7.500    
    255      1    128      1      -7.500          -7.500    
    256      1    128    180       7.500           7.500    
    257      1    129      1      -7.500          -7.500    
    258      1    129    180       7.500           7.500    
    259      1    130      1      -7.500          -7.500    
    260      1    130    180       7.500           7.500    
    261      1    131      1      -7.500          -7.500    
    262      1    131    180       7.500           7.500    
    263      1    132      1      -7.500          -7.500    
    264      1    132    180       7.500           7.500    
    265      1    133      1      -7.500          -7.500    
    266      1    133    180       7.500           7.500    
    267      1    134      1      -7.500          -7.500    
    268      1    134    180       7.500           7.500    
    269      1    135      1      -7.500          -7.500    
    270      1    135    180       7.500           7.500    
    271      1    136      1      -7.500          -7.500    
    272      1    136    180       7.500           7.500    
    273      1    137      1      -7.500          -7.500    
    274      1    137    180       7.500           7.500    
    275      1    138      1      -7.500          -7.500    
    276      1    138    180       7.500           7.500    
    277      1    139      1      -7.500          -7.500    
    278      1    139    180       7.500           7.500    
    279      1    140      1      -7.500          -7.500    
    280      1    140    180       7.500           7.500    
    281      1    141      1      -7.500          -7.500    
    282      1    141    180       7.500           7.500    
    283      1    142      1      -7.500          -7.500    
    284      1    142    180       7.500           7.500    
    285      1    143      1      -7.500          -7.500    
    286      1    143    180       7.500           7.500    
    287      1    144      1      -7.500          -7.500    
    288      1    144    180       7.500           7.500    
    289      1    145      1      -7.500          -7.500    
    290      1    145    180       7.500           7.500    
    291      1    146      1      -7.500          -7.500    
    292      1    146    180       7.500           7.500    
    293      1    147      1      -7.500          -7.500    
    294      1    147    180       7.500           7.500    
    295      1    148      1      -7.500          -7.500    
    296      1    148    180       7.500           7.500    
    297      1    149      1      -7.500          -7.500    
    298      1    149    180       7.500           7.500    
    299      1    150      1      -7.500          -7.500    
    300      1    150    180       7.500           7.500    
    301      1    151      1      -7.500          -7.500    
    302      1    151    180       7.500           7.500    
    303      1    152      1      -7.500          -7.500    
    304      1    152    180       7.500           7.500    
    305      1    153      1      -7.500          -7.500    
    306      1    153    180       7.500           7.500    
    307      1    154      1      -7.500          -7.500    
    308      1    154    180       7.500           7.500    
    309      1    155      1      -7.500          -7.500    
    310      1    155    180       7.500           7.500    
    311      1    156      1      -7.500          -7.500    
    312      1    156    180       7.500           7.500    
    313      1    157      1      -7.500          -7.500    
    314      1    157    180       7.500           7.500    
    315      1    158      1      -7.500          -7.500    
    316      1    158    180       7.500           7.500    
    317      1    159      1      -7.500          -7.500    
    318      1    159    180       7.500           7.500    
    319      1    160      1      -7.500          -7.500    
    320      1    160    180       7.500           7.500    
    321      1    161      1      -7.500          -7.500    
    322      1    161    180       7.500           7.500    
    323      1    162      1      -7.500          -7.500    
    324      1    162    180       7.500           7.500    
    325      1    163      1      -7.500          -7.500    
    326      1    163    180       7.500           7.500    
    327      1    164      1      -7.500          -7.500    
    328      1    164    180       7.500           7.500    
    329      1    165      1      -7.500          -7.500    
    330      1    165    180       7.500           7.500    
    331      1    166      1      -7.500          -7.500    
    332      1    166    180       7.500           7.500    
    333      1    167      1      -7.500          -7.500    
    334      1    167    180       7.500           7.500    
    335      1    168      1      -7.500          -7.500    
    336      1    168    180       7.500           7.500    
    337      1    169      1      -7.500          -7.500    
    338      1    169    180       7.500           7.500    
    339      1    170      1      -7.500          -7.500    
    340      1    170    180       7.500           7.500    
    341      1    171      1      -7.500          -7.500    
    342      1    171    180       7.500           7.500    
    343      1    172      1      -7.500          -7.500    
    344      1    172    180       7.500           7.500    
    345      1    173      1      -7.500          -7.500    
    346      1    173    180       7.500           7.500    
    347      1    174      1      -7.500          -7.500    
    348      1    174    180       7.500           7.500    
    349      1    175      1      -7.500          -7.500    
    350      1    175    180       7.500           7.500    
    351      1    176      1      -7.500          -7.500    
    352      1    176    180       7.500           7.500    
    353      1    177      1      -7.500          -7.500    
    354      1    177    180       7.500           7.500    
    355      1    178      1      -7.500          -7.500    
    356      1    178    180       7.500           7.500    
    357      1    179      1      -7.500          -7.500    
    358      1    179    180       7.500           7.500    
    359      1    180      1      -7.500          -7.500    
    360      1    180    180       7.500           7.500    


    360 TIME-VARIANT SPECIFIED-HEAD CELLS
 
 SOLVING FOR HEAD 

 OUTPUT CONTROL FOR STRESS PERIOD   18   TIME STEP    1
    SAVE HEAD FOR ALL LAYERS

 SAVING SATURATED THICKNESS AND FLOW TERMS ON UNIT   54 FOR MT3DMS
 BY THE LINK-MT3DMS PACKAGE V7 AT TIME STEP    1, STRESS PERIOD   18


 HEAD WILL BE SAVED ON UNIT   51 AT END OF TIME STEP    1, STRESS PERIOD   18
1
  VOLUMETRIC BUDGET FOR ENTIRE MODEL AT END OF TIME STEP    1, STRESS PERIOD  18
  ------------------------------------------------------------------------------

     CUMULATIVE VOLUMES      L**3       RATES FOR THIS TIME STEP      L**3/T
     ------------------                 ------------------------

           IN:                                      IN:
           ---                                      ---
             STORAGE =     1615072.7500               STORAGE =         498.6176
       CONSTANT HEAD =     1912928.2500         CONSTANT HEAD =        2315.7720
               WELLS =      512267.2812                 WELLS =        2145.0256

            TOTAL IN =     4040268.2500              TOTAL IN =        4959.4155

          OUT:                                     OUT:
          ----                                     ----
             STORAGE =     1709597.0000               STORAGE =        2508.1965
       CONSTANT HEAD =     1990834.6250         CONSTANT HEAD =        2451.2183
               WELLS =      339836.3750                 WELLS =           0.0000

           TOTAL OUT =     4040268.0000             TOTAL OUT =        4959.4150

            IN - OUT =           0.2500              IN - OUT =       4.8828E-04

 PERCENT DISCREPANCY =           0.00     PERCENT DISCREPANCY =           0.00






         TIME SUMMARY AT END OF TIME STEP    1 IN STRESS PERIOD   18
                    SECONDS     MINUTES      HOURS       DAYS        YEARS
                    -----------------------------------------------------------
   TIME STEP LENGTH 2.59200E+06  43200.      720.00      30.000     8.21355E-02
 STRESS PERIOD TIME 2.59200E+06  43200.      720.00      30.000     8.21355E-02
         TOTAL TIME 4.66560E+07 7.77600E+05  12960.      540.00      1.4784    
1
1
                            STRESS PERIOD NO.   19, LENGTH =   30.00000    
                            -----------------------------------------------

                              NUMBER OF TIME STEPS =     1

                               MULTIPLIER FOR DELT =     1.000

                            INITIAL TIME STEP SIZE =   30.00000    

 WELL NO.  LAYER   ROW   COL   STRESS RATE         
 --------------------------------------------------
      1      1     91     91      -1668.    

      1 WELL 

 CHD NO.   LAYER   ROW   COL    START HEAD        END HEAD         
 ------------------------------------------------------------------
      1      1      1      1      -7.500          -7.500    
      2      1      1    180       7.500           7.500    
      3      1      2      1      -7.500          -7.500    
      4      1      2    180       7.500           7.500    
      5      1      3      1      -7.500          -7.500    
      6      1      3    180       7.500           7.500    
      7      1      4      1      -7.500          -7.500    
      8      1      4    180       7.500           7.500    
      9      1      5      1      -7.500          -7.500    
     10      1      5    180       7.500           7.500    
     11      1      6      1      -7.500          -7.500    
     12      1      6    180       7.500           7.500    
     13      1      7      1      -7.500          -7.500    
     14      1      7    180       7.500           7.500    
     15      1      8      1      -7.500          -7.500    
     16      1      8    180       7.500           7.500    
     17      1      9      1      -7.500          -7.500    
     18      1      9    180       7.500           7.500    
     19      1     10      1      -7.500          -7.500    
     20      1     10    180       7.500           7.500    
     21      1     11      1      -7.500          -7.500    
     22      1     11    180       7.500           7.500    
     23      1     12      1      -7.500          -7.500    
     24      1     12    180       7.500           7.500    
     25      1     13      1      -7.500          -7.500    
     26      1     13    180       7.500           7.500    
     27      1     14      1      -7.500          -7.500    
     28      1     14    180       7.500           7.500    
     29      1     15      1      -7.500          -7.500    
     30      1     15    180       7.500           7.500    
     31      1     16      1      -7.500          -7.500    
     32      1     16    180       7.500           7.500    
     33      1     17      1      -7.500          -7.500    
     34      1     17    180       7.500           7.500    
     35      1     18      1      -7.500          -7.500    
     36      1     18    180       7.500           7.500    
     37      1     19      1      -7.500          -7.500    
     38      1     19    180       7.500           7.500    
     39      1     20      1      -7.500          -7.500    
     40      1     20    180       7.500           7.500    
     41      1     21      1      -7.500          -7.500    
     42      1     21    180       7.500           7.500    
     43      1     22      1      -7.500          -7.500    
     44      1     22    180       7.500           7.500    
     45      1     23      1      -7.500          -7.500    
     46      1     23    180       7.500           7.500    
     47      1     24      1      -7.500          -7.500    
     48      1     24    180       7.500           7.500    
     49      1     25      1      -7.500          -7.500    
     50      1     25    180       7.500           7.500    
     51      1     26      1      -7.500          -7.500    
     52      1     26    180       7.500           7.500    
     53      1     27      1      -7.500          -7.500    
     54      1     27    180       7.500           7.500    
     55      1     28      1      -7.500          -7.500    
     56      1     28    180       7.500           7.500    
     57      1     29      1      -7.500          -7.500    
     58      1     29    180       7.500           7.500    
     59      1     30      1      -7.500          -7.500    
     60      1     30    180       7.500           7.500    
     61      1     31      1      -7.500          -7.500    
     62      1     31    180       7.500           7.500    
     63      1     32      1      -7.500          -7.500    
     64      1     32    180       7.500           7.500    
     65      1     33      1      -7.500          -7.500    
     66      1     33    180       7.500           7.500    
     67      1     34      1      -7.500          -7.500    
     68      1     34    180       7.500           7.500    
     69      1     35      1      -7.500          -7.500    
     70      1     35    180       7.500           7.500    
     71      1     36      1      -7.500          -7.500    
     72      1     36    180       7.500           7.500    
     73      1     37      1      -7.500          -7.500    
     74      1     37    180       7.500           7.500    
     75      1     38      1      -7.500          -7.500    
     76      1     38    180       7.500           7.500    
     77      1     39      1      -7.500          -7.500    
     78      1     39    180       7.500           7.500    
     79      1     40      1      -7.500          -7.500    
     80      1     40    180       7.500           7.500    
     81      1     41      1      -7.500          -7.500    
     82      1     41    180       7.500           7.500    
     83      1     42      1      -7.500          -7.500    
     84      1     42    180       7.500           7.500    
     85      1     43      1      -7.500          -7.500    
     86      1     43    180       7.500           7.500    
     87      1     44      1      -7.500          -7.500    
     88      1     44    180       7.500           7.500    
     89      1     45      1      -7.500          -7.500    
     90      1     45    180       7.500           7.500    
     91      1     46      1      -7.500          -7.500    
     92      1     46    180       7.500           7.500    
     93      1     47      1      -7.500          -7.500    
     94      1     47    180       7.500           7.500    
     95      1     48      1      -7.500          -7.500    
     96      1     48    180       7.500           7.500    
     97      1     49      1      -7.500          -7.500    
     98      1     49    180       7.500           7.500    
     99      1     50      1      -7.500          -7.500    
    100      1     50    180       7.500           7.500    
    101      1     51      1      -7.500          -7.500    
    102      1     51    180       7.500           7.500    
    103      1     52      1      -7.500          -7.500    
    104      1     52    180       7.500           7.500    
    105      1     53      1      -7.500          -7.500    
    106      1     53    180       7.500           7.500    
    107      1     54      1      -7.500          -7.500    
    108      1     54    180       7.500           7.500    
    109      1     55      1      -7.500          -7.500    
    110      1     55    180       7.500           7.500    
    111      1     56      1      -7.500          -7.500    
    112      1     56    180       7.500           7.500    
    113      1     57      1      -7.500          -7.500    
    114      1     57    180       7.500           7.500    
    115      1     58      1      -7.500          -7.500    
    116      1     58    180       7.500           7.500    
    117      1     59      1      -7.500          -7.500    
    118      1     59    180       7.500           7.500    
    119      1     60      1      -7.500          -7.500    
    120      1     60    180       7.500           7.500    
    121      1     61      1      -7.500          -7.500    
    122      1     61    180       7.500           7.500    
    123      1     62      1      -7.500          -7.500    
    124      1     62    180       7.500           7.500    
    125      1     63      1      -7.500          -7.500    
    126      1     63    180       7.500           7.500    
    127      1     64      1      -7.500          -7.500    
    128      1     64    180       7.500           7.500    
    129      1     65      1      -7.500          -7.500    
    130      1     65    180       7.500           7.500    
    131      1     66      1      -7.500          -7.500    
    132      1     66    180       7.500           7.500    
    133      1     67      1      -7.500          -7.500    
    134      1     67    180       7.500           7.500    
    135      1     68      1      -7.500          -7.500    
    136      1     68    180       7.500           7.500    
    137      1     69      1      -7.500          -7.500    
    138      1     69    180       7.500           7.500    
    139      1     70      1      -7.500          -7.500    
    140      1     70    180       7.500           7.500    
    141      1     71      1      -7.500          -7.500    
    142      1     71    180       7.500           7.500    
    143      1     72      1      -7.500          -7.500    
    144      1     72    180       7.500           7.500    
    145      1     73      1      -7.500          -7.500    
    146      1     73    180       7.500           7.500    
    147      1     74      1      -7.500          -7.500    
    148      1     74    180       7.500           7.500    
    149      1     75      1      -7.500          -7.500    
    150      1     75    180       7.500           7.500    
    151      1     76      1      -7.500          -7.500    
    152      1     76    180       7.500           7.500    
    153      1     77      1      -7.500          -7.500    
    154      1     77    180       7.500           7.500    
    155      1     78      1      -7.500          -7.500    
    156      1     78    180       7.500           7.500    
    157      1     79      1      -7.500          -7.500    
    158      1     79    180       7.500           7.500    
    159      1     80      1      -7.500          -7.500    
    160      1     80    180       7.500           7.500    
    161      1     81      1      -7.500          -7.500    
    162      1     81    180       7.500           7.500    
    163      1     82      1      -7.500          -7.500    
    164      1     82    180       7.500           7.500    
    165      1     83      1      -7.500          -7.500    
    166      1     83    180       7.500           7.500    
    167      1     84      1      -7.500          -7.500    
    168      1     84    180       7.500           7.500    
    169      1     85      1      -7.500          -7.500    
    170      1     85    180       7.500           7.500    
    171      1     86      1      -7.500          -7.500    
    172      1     86    180       7.500           7.500    
    173      1     87      1      -7.500          -7.500    
    174      1     87    180       7.500           7.500    
    175      1     88      1      -7.500          -7.500    
    176      1     88    180       7.500           7.500    
    177      1     89      1      -7.500          -7.500    
    178      1     89    180       7.500           7.500    
    179      1     90      1      -7.500          -7.500    
    180      1     90    180       7.500           7.500    
    181      1     91      1      -7.500          -7.500    
    182      1     91    180       7.500           7.500    
    183      1     92      1      -7.500          -7.500    
    184      1     92    180       7.500           7.500    
    185      1     93      1      -7.500          -7.500    
    186      1     93    180       7.500           7.500    
    187      1     94      1      -7.500          -7.500    
    188      1     94    180       7.500           7.500    
    189      1     95      1      -7.500          -7.500    
    190      1     95    180       7.500           7.500    
    191      1     96      1      -7.500          -7.500    
    192      1     96    180       7.500           7.500    
    193      1     97      1      -7.500          -7.500    
    194      1     97    180       7.500           7.500    
    195      1     98      1      -7.500          -7.500    
    196      1     98    180       7.500           7.500    
    197      1     99      1      -7.500          -7.500    
    198      1     99    180       7.500           7.500    
    199      1    100      1      -7.500          -7.500    
    200      1    100    180       7.500           7.500    
    201      1    101      1      -7.500          -7.500    
    202      1    101    180       7.500           7.500    
    203      1    102      1      -7.500          -7.500    
    204      1    102    180       7.500           7.500    
    205      1    103      1      -7.500          -7.500    
    206      1    103    180       7.500           7.500    
    207      1    104      1      -7.500          -7.500    
    208      1    104    180       7.500           7.500    
    209      1    105      1      -7.500          -7.500    
    210      1    105    180       7.500           7.500    
    211      1    106      1      -7.500          -7.500    
    212      1    106    180       7.500           7.500    
    213      1    107      1      -7.500          -7.500    
    214      1    107    180       7.500           7.500    
    215      1    108      1      -7.500          -7.500    
    216      1    108    180       7.500           7.500    
    217      1    109      1      -7.500          -7.500    
    218      1    109    180       7.500           7.500    
    219      1    110      1      -7.500          -7.500    
    220      1    110    180       7.500           7.500    
    221      1    111      1      -7.500          -7.500    
    222      1    111    180       7.500           7.500    
    223      1    112      1      -7.500          -7.500    
    224      1    112    180       7.500           7.500    
    225      1    113      1      -7.500          -7.500    
    226      1    113    180       7.500           7.500    
    227      1    114      1      -7.500          -7.500    
    228      1    114    180       7.500           7.500    
    229      1    115      1      -7.500          -7.500    
    230      1    115    180       7.500           7.500    
    231      1    116      1      -7.500          -7.500    
    232      1    116    180       7.500           7.500    
    233      1    117      1      -7.500          -7.500    
    234      1    117    180       7.500           7.500    
    235      1    118      1      -7.500          -7.500    
    236      1    118    180       7.500           7.500    
    237      1    119      1      -7.500          -7.500    
    238      1    119    180       7.500           7.500    
    239      1    120      1      -7.500          -7.500    
    240      1    120    180       7.500           7.500    
    241      1    121      1      -7.500          -7.500    
    242      1    121    180       7.500           7.500    
    243      1    122      1      -7.500          -7.500    
    244      1    122    180       7.500           7.500    
    245      1    123      1      -7.500          -7.500    
    246      1    123    180       7.500           7.500    
    247      1    124      1      -7.500          -7.500    
    248      1    124    180       7.500           7.500    
    249      1    125      1      -7.500          -7.500    
    250      1    125    180       7.500           7.500    
    251      1    126      1      -7.500          -7.500    
    252      1    126    180       7.500           7.500    
    253      1    127      1      -7.500          -7.500    
    254      1    127    180       7.500           7.500    
    255      1    128      1      -7.500          -7.500    
    256      1    128    180       7.500           7.500    
    257      1    129      1      -7.500          -7.500    
    258      1    129    180       7.500           7.500    
    259      1    130      1      -7.500          -7.500    
    260      1    130    180       7.500           7.500    
    261      1    131      1      -7.500          -7.500    
    262      1    131    180       7.500           7.500    
    263      1    132      1      -7.500          -7.500    
    264      1    132    180       7.500           7.500    
    265      1    133      1      -7.500          -7.500    
    266      1    133    180       7.500           7.500    
    267      1    134      1      -7.500          -7.500    
    268      1    134    180       7.500           7.500    
    269      1    135      1      -7.500          -7.500    
    270      1    135    180       7.500           7.500    
    271      1    136      1      -7.500          -7.500    
    272      1    136    180       7.500           7.500    
    273      1    137      1      -7.500          -7.500    
    274      1    137    180       7.500           7.500    
    275      1    138      1      -7.500          -7.500    
    276      1    138    180       7.500           7.500    
    277      1    139      1      -7.500          -7.500    
    278      1    139    180       7.500           7.500    
    279      1    140      1      -7.500          -7.500    
    280      1    140    180       7.500           7.500    
    281      1    141      1      -7.500          -7.500    
    282      1    141    180       7.500           7.500    
    283      1    142      1      -7.500          -7.500    
    284      1    142    180       7.500           7.500    
    285      1    143      1      -7.500          -7.500    
    286      1    143    180       7.500           7.500    
    287      1    144      1      -7.500          -7.500    
    288      1    144    180       7.500           7.500    
    289      1    145      1      -7.500          -7.500    
    290      1    145    180       7.500           7.500    
    291      1    146      1      -7.500          -7.500    
    292      1    146    180       7.500           7.500    
    293      1    147      1      -7.500          -7.500    
    294      1    147    180       7.500           7.500    
    295      1    148      1      -7.500          -7.500    
    296      1    148    180       7.500           7.500    
    297      1    149      1      -7.500          -7.500    
    298      1    149    180       7.500           7.500    
    299      1    150      1      -7.500          -7.500    
    300      1    150    180       7.500           7.500    
    301      1    151      1      -7.500          -7.500    
    302      1    151    180       7.500           7.500    
    303      1    152      1      -7.500          -7.500    
    304      1    152    180       7.500           7.500    
    305      1    153      1      -7.500          -7.500    
    306      1    153    180       7.500           7.500    
    307      1    154      1      -7.500          -7.500    
    308      1    154    180       7.500           7.500    
    309      1    155      1      -7.500          -7.500    
    310      1    155    180       7.500           7.500    
    311      1    156      1      -7.500          -7.500    
    312      1    156    180       7.500           7.500    
    313      1    157      1      -7.500          -7.500    
    314      1    157    180       7.500           7.500    
    315      1    158      1      -7.500          -7.500    
    316      1    158    180       7.500           7.500    
    317      1    159      1      -7.500          -7.500    
    318      1    159    180       7.500           7.500    
    319      1    160      1      -7.500          -7.500    
    320      1    160    180       7.500           7.500    
    321      1    161      1      -7.500          -7.500    
    322      1    161    180       7.500           7.500    
    323      1    162      1      -7.500          -7.500    
    324      1    162    180       7.500           7.500    
    325      1    163      1      -7.500          -7.500    
    326      1    163    180       7.500           7.500    
    327      1    164      1      -7.500          -7.500    
    328      1    164    180       7.500           7.500    
    329      1    165      1      -7.500          -7.500    
    330      1    165    180       7.500           7.500    
    331      1    166      1      -7.500          -7.500    
    332      1    166    180       7.500           7.500    
    333      1    167      1      -7.500          -7.500    
    334      1    167    180       7.500           7.500    
    335      1    168      1      -7.500          -7.500    
    336      1    168    180       7.500           7.500    
    337      1    169      1      -7.500          -7.500    
    338      1    169    180       7.500           7.500    
    339      1    170      1      -7.500          -7.500    
    340      1    170    180       7.500           7.500    
    341      1    171      1      -7.500          -7.500    
    342      1    171    180       7.500           7.500    
    343      1    172      1      -7.500          -7.500    
    344      1    172    180       7.500           7.500    
    345      1    173      1      -7.500          -7.500    
    346      1    173    180       7.500           7.500    
    347      1    174      1      -7.500          -7.500    
    348      1    174    180       7.500           7.500    
    349      1    175      1      -7.500          -7.500    
    350      1    175    180       7.500           7.500    
    351      1    176      1      -7.500          -7.500    
    352      1    176    180       7.500           7.500    
    353      1    177      1      -7.500          -7.500    
    354      1    177    180       7.500           7.500    
    355      1    178      1      -7.500          -7.500    
    356      1    178    180       7.500           7.500    
    357      1    179      1      -7.500          -7.500    
    358      1    179    180       7.500           7.500    
    359      1    180      1      -7.500          -7.500    
    360      1    180    180       7.500           7.500    


    360 TIME-VARIANT SPECIFIED-HEAD CELLS
 
 SOLVING FOR HEAD 

 OUTPUT CONTROL FOR STRESS PERIOD   19   TIME STEP    1
    SAVE HEAD FOR ALL LAYERS

 SAVING SATURATED THICKNESS AND FLOW TERMS ON UNIT   54 FOR MT3DMS
 BY THE LINK-MT3DMS PACKAGE V7 AT TIME STEP    1, STRESS PERIOD   19


 HEAD WILL BE SAVED ON UNIT   51 AT END OF TIME STEP    1, STRESS PERIOD   19
1
  VOLUMETRIC BUDGET FOR ENTIRE MODEL AT END OF TIME STEP    1, STRESS PERIOD  19
  ------------------------------------------------------------------------------

     CUMULATIVE VOLUMES      L**3       RATES FOR THIS TIME STEP      L**3/T
     ------------------                 ------------------------

           IN:                                      IN:
           ---                                      ---
             STORAGE =     1675953.7500               STORAGE =        2029.3660
       CONSTANT HEAD =     1981681.6250         CONSTANT HEAD =        2291.7798
               WELLS =      512267.2812                 WELLS =           0.0000

            TOTAL IN =     4169902.7500              TOTAL IN =        4321.1455

          OUT:                                     OUT:
          ----                                     ----
             STORAGE =     1716863.3750               STORAGE =         242.2127
       CONSTANT HEAD =     2063164.3750         CONSTANT HEAD =        2410.9922
               WELLS =      389874.6250                 WELLS =        1667.9412

           TOTAL OUT =     4169902.5000             TOTAL OUT =        4321.1460

            IN - OUT =           0.2500              IN - OUT =      -4.8828E-04

 PERCENT DISCREPANCY =           0.00     PERCENT DISCREPANCY =          -0.00






         TIME SUMMARY AT END OF TIME STEP    1 IN STRESS PERIOD   19
                    SECONDS     MINUTES      HOURS       DAYS        YEARS
                    -----------------------------------------------------------
   TIME STEP LENGTH 2.59200E+06  43200.      720.00      30.000     8.21355E-02
 STRESS PERIOD TIME 2.59200E+06  43200.      720.00      30.000     8.21355E-02
         TOTAL TIME 4.92480E+07 8.20800E+05  13680.      570.00      1.5606    
1
1
                            STRESS PERIOD NO.   20, LENGTH =   30.00000    
                            -----------------------------------------------

                              NUMBER OF TIME STEPS =     1

                               MULTIPLIER FOR DELT =     1.000

                            INITIAL TIME STEP SIZE =   30.00000    

 WELL NO.  LAYER   ROW   COL   STRESS RATE         
 --------------------------------------------------
      1      1     91     91      -1668.    

      1 WELL 

 CHD NO.   LAYER   ROW   COL    START HEAD        END HEAD         
 ------------------------------------------------------------------
      1      1      1      1      -7.500          -7.500    
      2      1      1    180       7.500           7.500    
      3      1      2      1      -7.500          -7.500    
      4      1      2    180       7.500           7.500    
      5      1      3      1      -7.500          -7.500    
      6      1      3    180       7.500           7.500    
      7      1      4      1      -7.500          -7.500    
      8      1      4    180       7.500           7.500    
      9      1      5      1      -7.500          -7.500    
     10      1      5    180       7.500           7.500    
     11      1      6      1      -7.500          -7.500    
     12      1      6    180       7.500           7.500    
     13      1      7      1      -7.500          -7.500    
     14      1      7    180       7.500           7.500    
     15      1      8      1      -7.500          -7.500    
     16      1      8    180       7.500           7.500    
     17      1      9      1      -7.500          -7.500    
     18      1      9    180       7.500           7.500    
     19      1     10      1      -7.500          -7.500    
     20      1     10    180       7.500           7.500    
     21      1     11      1      -7.500          -7.500    
     22      1     11    180       7.500           7.500    
     23      1     12      1      -7.500          -7.500    
     24      1     12    180       7.500           7.500    
     25      1     13      1      -7.500          -7.500    
     26      1     13    180       7.500           7.500    
     27      1     14      1      -7.500          -7.500    
     28      1     14    180       7.500           7.500    
     29      1     15      1      -7.500          -7.500    
     30      1     15    180       7.500           7.500    
     31      1     16      1      -7.500          -7.500    
     32      1     16    180       7.500           7.500    
     33      1     17      1      -7.500          -7.500    
     34      1     17    180       7.500           7.500    
     35      1     18      1      -7.500          -7.500    
     36      1     18    180       7.500           7.500    
     37      1     19      1      -7.500          -7.500    
     38      1     19    180       7.500           7.500    
     39      1     20      1      -7.500          -7.500    
     40      1     20    180       7.500           7.500    
     41      1     21      1      -7.500          -7.500    
     42      1     21    180       7.500           7.500    
     43      1     22      1      -7.500          -7.500    
     44      1     22    180       7.500           7.500    
     45      1     23      1      -7.500          -7.500    
     46      1     23    180       7.500           7.500    
     47      1     24      1      -7.500          -7.500    
     48      1     24    180       7.500           7.500    
     49      1     25      1      -7.500          -7.500    
     50      1     25    180       7.500           7.500    
     51      1     26      1      -7.500          -7.500    
     52      1     26    180       7.500           7.500    
     53      1     27      1      -7.500          -7.500    
     54      1     27    180       7.500           7.500    
     55      1     28      1      -7.500          -7.500    
     56      1     28    180       7.500           7.500    
     57      1     29      1      -7.500          -7.500    
     58      1     29    180       7.500           7.500    
     59      1     30      1      -7.500          -7.500    
     60      1     30    180       7.500           7.500    
     61      1     31      1      -7.500          -7.500    
     62      1     31    180       7.500           7.500    
     63      1     32      1      -7.500          -7.500    
     64      1     32    180       7.500           7.500    
     65      1     33      1      -7.500          -7.500    
     66      1     33    180       7.500           7.500    
     67      1     34      1      -7.500          -7.500    
     68      1     34    180       7.500           7.500    
     69      1     35      1      -7.500          -7.500    
     70      1     35    180       7.500           7.500    
     71      1     36      1      -7.500          -7.500    
     72      1     36    180       7.500           7.500    
     73      1     37      1      -7.500          -7.500    
     74      1     37    180       7.500           7.500    
     75      1     38      1      -7.500          -7.500    
     76      1     38    180       7.500           7.500    
     77      1     39      1      -7.500          -7.500    
     78      1     39    180       7.500           7.500    
     79      1     40      1      -7.500          -7.500    
     80      1     40    180       7.500           7.500    
     81      1     41      1      -7.500          -7.500    
     82      1     41    180       7.500           7.500    
     83      1     42      1      -7.500          -7.500    
     84      1     42    180       7.500           7.500    
     85      1     43      1      -7.500          -7.500    
     86      1     43    180       7.500           7.500    
     87      1     44      1      -7.500          -7.500    
     88      1     44    180       7.500           7.500    
     89      1     45      1      -7.500          -7.500    
     90      1     45    180       7.500           7.500    
     91      1     46      1      -7.500          -7.500    
     92      1     46    180       7.500           7.500    
     93      1     47      1      -7.500          -7.500    
     94      1     47    180       7.500           7.500    
     95      1     48      1      -7.500          -7.500    
     96      1     48    180       7.500           7.500    
     97      1     49      1      -7.500          -7.500    
     98      1     49    180       7.500           7.500    
     99      1     50      1      -7.500          -7.500    
    100      1     50    180       7.500           7.500    
    101      1     51      1      -7.500          -7.500    
    102      1     51    180       7.500           7.500    
    103      1     52      1      -7.500          -7.500    
    104      1     52    180       7.500           7.500    
    105      1     53      1      -7.500          -7.500    
    106      1     53    180       7.500           7.500    
    107      1     54      1      -7.500          -7.500    
    108      1     54    180       7.500           7.500    
    109      1     55      1      -7.500          -7.500    
    110      1     55    180       7.500           7.500    
    111      1     56      1      -7.500          -7.500    
    112      1     56    180       7.500           7.500    
    113      1     57      1      -7.500          -7.500    
    114      1     57    180       7.500           7.500    
    115      1     58      1      -7.500          -7.500    
    116      1     58    180       7.500           7.500    
    117      1     59      1      -7.500          -7.500    
    118      1     59    180       7.500           7.500    
    119      1     60      1      -7.500          -7.500    
    120      1     60    180       7.500           7.500    
    121      1     61      1      -7.500          -7.500    
    122      1     61    180       7.500           7.500    
    123      1     62      1      -7.500          -7.500    
    124      1     62    180       7.500           7.500    
    125      1     63      1      -7.500          -7.500    
    126      1     63    180       7.500           7.500    
    127      1     64      1      -7.500          -7.500    
    128      1     64    180       7.500           7.500    
    129      1     65      1      -7.500          -7.500    
    130      1     65    180       7.500           7.500    
    131      1     66      1      -7.500          -7.500    
    132      1     66    180       7.500           7.500    
    133      1     67      1      -7.500          -7.500    
    134      1     67    180       7.500           7.500    
    135      1     68      1      -7.500          -7.500    
    136      1     68    180       7.500           7.500    
    137      1     69      1      -7.500          -7.500    
    138      1     69    180       7.500           7.500    
    139      1     70      1      -7.500          -7.500    
    140      1     70    180       7.500           7.500    
    141      1     71      1      -7.500          -7.500    
    142      1     71    180       7.500           7.500    
    143      1     72      1      -7.500          -7.500    
    144      1     72    180       7.500           7.500    
    145      1     73      1      -7.500          -7.500    
    146      1     73    180       7.500           7.500    
    147      1     74      1      -7.500          -7.500    
    148      1     74    180       7.500           7.500    
    149      1     75      1      -7.500          -7.500    
    150      1     75    180       7.500           7.500    
    151      1     76      1      -7.500          -7.500    
    152      1     76    180       7.500           7.500    
    153      1     77      1      -7.500          -7.500    
    154      1     77    180       7.500           7.500    
    155      1     78      1      -7.500          -7.500    
    156      1     78    180       7.500           7.500    
    157      1     79      1      -7.500          -7.500    
    158      1     79    180       7.500           7.500    
    159      1     80      1      -7.500          -7.500    
    160      1     80    180       7.500           7.500    
    161      1     81      1      -7.500          -7.500    
    162      1     81    180       7.500           7.500    
    163      1     82      1      -7.500          -7.500    
    164      1     82    180       7.500           7.500    
    165      1     83      1      -7.500          -7.500    
    166      1     83    180       7.500           7.500    
    167      1     84      1      -7.500          -7.500    
    168      1     84    180       7.500           7.500    
    169      1     85      1      -7.500          -7.500    
    170      1     85    180       7.500           7.500    
    171      1     86      1      -7.500          -7.500    
    172      1     86    180       7.500           7.500    
    173      1     87      1      -7.500          -7.500    
    174      1     87    180       7.500           7.500    
    175      1     88      1      -7.500          -7.500    
    176      1     88    180       7.500           7.500    
    177      1     89      1      -7.500          -7.500    
    178      1     89    180       7.500           7.500    
    179      1     90      1      -7.500          -7.500    
    180      1     90    180       7.500           7.500    
    181      1     91      1      -7.500          -7.500    
    182      1     91    180       7.500           7.500    
    183      1     92      1      -7.500          -7.500    
    184      1     92    180       7.500           7.500    
    185      1     93      1      -7.500          -7.500    
    186      1     93    180       7.500           7.500    
    187      1     94      1      -7.500          -7.500    
    188      1     94    180       7.500           7.500    
    189      1     95      1      -7.500          -7.500    
    190      1     95    180       7.500           7.500    
    191      1     96      1      -7.500          -7.500    
    192      1     96    180       7.500           7.500    
    193      1     97      1      -7.500          -7.500    
    194      1     97    180       7.500           7.500    
    195      1     98      1      -7.500          -7.500    
    196      1     98    180       7.500           7.500    
    197      1     99      1      -7.500          -7.500    
    198      1     99    180       7.500           7.500    
    199      1    100      1      -7.500          -7.500    
    200      1    100    180       7.500           7.500    
    201      1    101      1      -7.500          -7.500    
    202      1    101    180       7.500           7.500    
    203      1    102      1      -7.500          -7.500    
    204      1    102    180       7.500           7.500    
    205      1    103      1      -7.500          -7.500    
    206      1    103    180       7.500           7.500    
    207      1    104      1      -7.500          -7.500    
    208      1    104    180       7.500           7.500    
    209      1    105      1      -7.500          -7.500    
    210      1    105    180       7.500           7.500    
    211      1    106      1      -7.500          -7.500    
    212      1    106    180       7.500           7.500    
    213      1    107      1      -7.500          -7.500    
    214      1    107    180       7.500           7.500    
    215      1    108      1      -7.500          -7.500    
    216      1    108    180       7.500           7.500    
    217      1    109      1      -7.500          -7.500    
    218      1    109    180       7.500           7.500    
    219      1    110      1      -7.500          -7.500    
    220      1    110    180       7.500           7.500    
    221      1    111      1      -7.500          -7.500    
    222      1    111    180       7.500           7.500    
    223      1    112      1      -7.500          -7.500    
    224      1    112    180       7.500           7.500    
    225      1    113      1      -7.500          -7.500    
    226      1    113    180       7.500           7.500    
    227      1    114      1      -7.500          -7.500    
    228      1    114    180       7.500           7.500    
    229      1    115      1      -7.500          -7.500    
    230      1    115    180       7.500           7.500    
    231      1    116      1      -7.500          -7.500    
    232      1    116    180       7.500           7.500    
    233      1    117      1      -7.500          -7.500    
    234      1    117    180       7.500           7.500    
    235      1    118      1      -7.500          -7.500    
    236      1    118    180       7.500           7.500    
    237      1    119      1      -7.500          -7.500    
    238      1    119    180       7.500           7.500    
    239      1    120      1      -7.500          -7.500    
    240      1    120    180       7.500           7.500    
    241      1    121      1      -7.500          -7.500    
    242      1    121    180       7.500           7.500    
    243      1    122      1      -7.500          -7.500    
    244      1    122    180       7.500           7.500    
    245      1    123      1      -7.500          -7.500    
    246      1    123    180       7.500           7.500    
    247      1    124      1      -7.500          -7.500    
    248      1    124    180       7.500           7.500    
    249      1    125      1      -7.500          -7.500    
    250      1    125    180       7.500           7.500    
    251      1    126      1      -7.500          -7.500    
    252      1    126    180       7.500           7.500    
    253      1    127      1      -7.500          -7.500    
    254      1    127    180       7.500           7.500    
    255      1    128      1      -7.500          -7.500    
    256      1    128    180       7.500           7.500    
    257      1    129      1      -7.500          -7.500    
    258      1    129    180       7.500           7.500    
    259      1    130      1      -7.500          -7.500    
    260      1    130    180       7.500           7.500    
    261      1    131      1      -7.500          -7.500    
    262      1    131    180       7.500           7.500    
    263      1    132      1      -7.500          -7.500    
    264      1    132    180       7.500           7.500    
    265      1    133      1      -7.500          -7.500    
    266      1    133    180       7.500           7.500    
    267      1    134      1      -7.500          -7.500    
    268      1    134    180       7.500           7.500    
    269      1    135      1      -7.500          -7.500    
    270      1    135    180       7.500           7.500    
    271      1    136      1      -7.500          -7.500    
    272      1    136    180       7.500           7.500    
    273      1    137      1      -7.500          -7.500    
    274      1    137    180       7.500           7.500    
    275      1    138      1      -7.500          -7.500    
    276      1    138    180       7.500           7.500    
    277      1    139      1      -7.500          -7.500    
    278      1    139    180       7.500           7.500    
    279      1    140      1      -7.500          -7.500    
    280      1    140    180       7.500           7.500    
    281      1    141      1      -7.500          -7.500    
    282      1    141    180       7.500           7.500    
    283      1    142      1      -7.500          -7.500    
    284      1    142    180       7.500           7.500    
    285      1    143      1      -7.500          -7.500    
    286      1    143    180       7.500           7.500    
    287      1    144      1      -7.500          -7.500    
    288      1    144    180       7.500           7.500    
    289      1    145      1      -7.500          -7.500    
    290      1    145    180       7.500           7.500    
    291      1    146      1      -7.500          -7.500    
    292      1    146    180       7.500           7.500    
    293      1    147      1      -7.500          -7.500    
    294      1    147    180       7.500           7.500    
    295      1    148      1      -7.500          -7.500    
    296      1    148    180       7.500           7.500    
    297      1    149      1      -7.500          -7.500    
    298      1    149    180       7.500           7.500    
    299      1    150      1      -7.500          -7.500    
    300      1    150    180       7.500           7.500    
    301      1    151      1      -7.500          -7.500    
    302      1    151    180       7.500           7.500    
    303      1    152      1      -7.500          -7.500    
    304      1    152    180       7.500           7.500    
    305      1    153      1      -7.500          -7.500    
    306      1    153    180       7.500           7.500    
    307      1    154      1      -7.500          -7.500    
    308      1    154    180       7.500           7.500    
    309      1    155      1      -7.500          -7.500    
    310      1    155    180       7.500           7.500    
    311      1    156      1      -7.500          -7.500    
    312      1    156    180       7.500           7.500    
    313      1    157      1      -7.500          -7.500    
    314      1    157    180       7.500           7.500    
    315      1    158      1      -7.500          -7.500    
    316      1    158    180       7.500           7.500    
    317      1    159      1      -7.500          -7.500    
    318      1    159    180       7.500           7.500    
    319      1    160      1      -7.500          -7.500    
    320      1    160    180       7.500           7.500    
    321      1    161      1      -7.500          -7.500    
    322      1    161    180       7.500           7.500    
    323      1    162      1      -7.500          -7.500    
    324      1    162    180       7.500           7.500    
    325      1    163      1      -7.500          -7.500    
    326      1    163    180       7.500           7.500    
    327      1    164      1      -7.500          -7.500    
    328      1    164    180       7.500           7.500    
    329      1    165      1      -7.500          -7.500    
    330      1    165    180       7.500           7.500    
    331      1    166      1      -7.500          -7.500    
    332      1    166    180       7.500           7.500    
    333      1    167      1      -7.500          -7.500    
    334      1    167    180       7.500           7.500    
    335      1    168      1      -7.500          -7.500    
    336      1    168    180       7.500           7.500    
    337      1    169      1      -7.500          -7.500    
    338      1    169    180       7.500           7.500    
    339      1    170      1      -7.500          -7.500    
    340      1    170    180       7.500           7.500    
    341      1    171      1      -7.500          -7.500    
    342      1    171    180       7.500           7.500    
    343      1    172      1      -7.500          -7.500    
    344      1    172    180       7.500           7.500    
    345      1    173      1      -7.500          -7.500    
    346      1    173    180       7.500           7.500    
    347      1    174      1      -7.500          -7.500    
    348      1    174    180       7.500           7.500    
    349      1    175      1      -7.500          -7.500    
    350      1    175    180       7.500           7.500    
    351      1    176      1      -7.500          -7.500    
    352      1    176    180       7.500           7.500    
    353      1    177      1      -7.500          -7.500    
    354      1    177    180       7.500           7.500    
    355      1    178      1      -7.500          -7.500    
    356      1    178    180       7.500           7.500    
    357      1    179      1      -7.500          -7.500    
    358      1    179    180       7.500           7.500    
    359      1    180      1      -7.500          -7.500    
    360      1    180    180       7.500           7.500    


    360 TIME-VARIANT SPECIFIED-HEAD CELLS
 
 SOLVING FOR HEAD 

 OUTPUT CONTROL FOR STRESS PERIOD   20   TIME STEP    1
    SAVE HEAD FOR ALL LAYERS

 SAVING SATURATED THICKNESS AND FLOW TERMS ON UNIT   54 FOR MT3DMS
 BY THE LINK-MT3DMS PACKAGE V7 AT TIME STEP    1, STRESS PERIOD   20


 HEAD WILL BE SAVED ON UNIT   51 AT END OF TIME STEP    1, STRESS PERIOD   20
1
  VOLUMETRIC BUDGET FOR ENTIRE MODEL AT END OF TIME STEP    1, STRESS PERIOD  20
  ------------------------------------------------------------------------------

     CUMULATIVE VOLUMES      L**3       RATES FOR THIS TIME STEP      L**3/T
     ------------------                 ------------------------

           IN:                                      IN:
           ---                                      ---
             STORAGE =     1733008.3750               STORAGE =        1901.8214
       CONSTANT HEAD =     2049897.5000         CONSTANT HEAD =        2273.8623
               WELLS =      512267.2812                 WELLS =           0.0000

            TOTAL IN =     4295173.0000              TOTAL IN =        4175.6836

          OUT:                                     OUT:
          ----                                     ----
             STORAGE =     1720868.8750               STORAGE =         133.5150
       CONSTANT HEAD =     2134391.2500         CONSTANT HEAD =        2374.2280
               WELLS =      439912.8750                 WELLS =        1667.9412

           TOTAL OUT =     4295173.0000             TOTAL OUT =        4175.6841

            IN - OUT =           0.0000              IN - OUT =      -4.8828E-04

 PERCENT DISCREPANCY =           0.00     PERCENT DISCREPANCY =          -0.00






         TIME SUMMARY AT END OF TIME STEP    1 IN STRESS PERIOD   20
                    SECONDS     MINUTES      HOURS       DAYS        YEARS
                    -----------------------------------------------------------
   TIME STEP LENGTH 2.59200E+06  43200.      720.00      30.000     8.21355E-02
 STRESS PERIOD TIME 2.59200E+06  43200.      720.00      30.000     8.21355E-02
         TOTAL TIME 5.18400E+07 8.64000E+05  14400.      600.00      1.6427    
1

 Run end date and time (yyyy/mm/dd hh:mm:ss): 2018/04/25 15:52:15
 Elapsed run time:  2.650 Seconds

